
 ===================================================
  XFOIL Version 6.99
  Copyright (C) 2000   Mark Drela, Harold Youngren

  This software comes with ABSOLUTELY NO WARRANTY,
    subject to the GNU General Public License.

  Caveat computor
 ===================================================

 File  xfoil.def  not found

   QUIT    Exit program

  .OPER    Direct operating point(s)
  .MDES    Complex mapping design routine
  .QDES    Surface speed design routine
  .GDES    Geometry design routine

   SAVE f  Write airfoil to labeled coordinate file
   PSAV f  Write airfoil to plain coordinate file
   ISAV f  Write airfoil to ISES coordinate file
   MSAV f  Write airfoil to MSES coordinate file
   REVE    Reverse written-airfoil node ordering

   LOAD f  Read buffer airfoil from coordinate file
   NACA i  Set NACA 4,5-digit airfoil and buffer airfoil
   INTE    Set buffer airfoil by interpolating two airfoils
   NORM    Buffer airfoil normalization toggle
   XYCM rr Change CM reference location, currently  0.25000 0.00000

   BEND    Display structural properties of current airfoil

   PCOP    Set current-airfoil panel nodes directly from buffer airfoil points
   PANE    Set current-airfoil panel nodes ( 160 ) based on curvature
  .PPAR    Show/change paneling

  .PLOP    Plotting options

   WDEF f  Write  current-settings file
   RDEF f  Reread current-settings file
   NAME s  Specify new airfoil name
   NINC    Increment name version number

   Z       Zoom    | (available in all menus)
   U       Unzoom  | 

 XFOIL   c>   ...............................................

  G raphics-enable flag:        T
  S ize of plot object          10.00"
  A spect ratio of plot object   0.5500
  P age dimensions              11.00 x  8.50"
  M argins from page edges       0.00",  0.00"
  F ont size (relative)          0.0150
  W indow/screen size fraction   0.8000
  B lowup input method:        Cursor    
  O rientation of plot:        Landscape 
  C olor PostScript output?     F

      Option, Value   (or <Return>)    c>   ...............................................

  G raphics-enable flag:        F
  S ize of plot object          10.00"
  A spect ratio of plot object   0.5500
  P age dimensions              11.00 x  8.50"
  M argins from page edges       0.00",  0.00"
  F ont size (relative)          0.0150
  W indow/screen size fraction   0.8000
  B lowup input method:        Cursor    
  O rientation of plot:        Landscape 
  C olor PostScript output?     F

      Option, Value   (or <Return>)    c>  
 XFOIL   c>  
Enter filename   s>  
 Labeled airfoil file.  Name:  tpb6c59d44_34d7_4458_aa9b_9a5010ff4e6c          

 Number of input coordinate points: 160
 Counterclockwise ordering
 Max thickness =     0.156612  at x =   0.338
 Max camber    =     0.045540  at x =   0.524

  LE  x,y  =  -0.00000   0.00005  |   Chord =   1.00001
  TE  x,y  =   1.00001   0.00000  |

 Current airfoil nodes set from buffer airfoil nodes ( 160 )

 XFOIL   c>  
.OPERi   c>   Current iteration limit:          10

Enter new iteration limit   i>  
.OPERi   c>  
Enter Reynolds number   r>  
 M  =    0.0000
 Re =   2500000

.OPERv   c>  
 Xtr/c     =  1.0000    top    side
 Xtr/c     =  1.0000    bottom side
 Ncrit     =    9.00   ( 0.070 % turb. level )
 Vacc      =  0.0100

 Klag  =  5.6000     Uxwt  =    1.00
 A     =  6.7000     B     =  0.7500       KCt = 0.01485
 CtiniK=  1.8000     CtiniX=  3.3000

..VPAR   c>   Trips are entered in x/c (with xtr>0)
                   or s/c (with xtr<0)

Enter top    side Xtrip/c   r>  
Enter bottom side Xtrip/c   r>  
..VPAR   c>  
.OPERv   c>  
 Polar  1 newly created for accumulation
 Airfoil archived with polar: tpb6c59d44_34d7_4458_aa9b_9a5010ff4e6c          

Enter  polar save filename  OR  <return> for no file   s>  
 New polar save file available

Enter  polar dump filename  OR  <return> for no file   s>  
 Polar dump file will NOT be written

 Polar accumulation enabled

.OPERva   c>   Calculating unit vorticity distributions ...
 Calculating wake trajectory ...
 Calculating source influence matrix ...

 Solving BL system ...

 Initializing BL ...
    side            1  ...
 MRCHUE: Inverse mode at  57     Hk =   5.001
 MRCHUE: Inverse mode at  58     Hk =   6.394
 MRCHUE: Inverse mode at  59     Hk =   2.500
 MRCHUE: Inverse mode at  76     Hk =   2.500
    side            2  ...
 MRCHUE: Inverse mode at  15     Hk =   5.244
 MRCHUE: Inverse mode at  16     Hk =   7.245
 MRCHUE: Inverse mode at  17     Hk =   9.270
 MRCHUE: Inverse mode at  18     Hk =   2.500
 MRCHUE: Inverse mode at  86     Hk =   2.500

 Side 1  free  transition at x/c =  0.7508   58
 Side 2  free  transition at x/c =  0.0119   18

   1   rms: 0.1660E+00   max: -.9934E+00   D at   86  2   RLX: 0.503
       a = -5.000      CL =  0.0655
      Cm = -0.1451     CD =  0.00709   =>   CDf =  0.00527    CDp =  0.00182

 MRCHDU: Convergence failed at  59  side 1    Res =  0.3001E+01
 Side 1  free  transition at x/c =  0.7598   59
 Side 2  free  transition at x/c =  0.0117   18

   2   rms: 0.8537E-01   max: -.7440E+00   D at   86  2   RLX: 0.672
       a = -5.000      CL =  0.0671
      Cm = -0.1447     CD =  0.00701   =>   CDf =  0.00520    CDp =  0.00181

 Side 1  free  transition at x/c =  0.7786   60
 Side 2  free  transition at x/c =  0.0156   19

   3   rms: 0.6523E-01   max: -.5016E+00   C at   60  1   RLX: 0.997
       a = -5.000      CL =  0.1221
      Cm = -0.1567     CD =  0.00706   =>   CDf =  0.00515    CDp =  0.00191

 Side 1  free  transition at x/c =  0.7899   61
 Side 2  free  transition at x/c =  0.0206   20

   4   rms: 0.1381E-01   max: -.1086E+00   D at   76  1
       a = -5.000      CL =  0.1349
      Cm = -0.1597     CD =  0.00709   =>   CDf =  0.00507    CDp =  0.00202

 Side 1  free  transition at x/c =  0.7911   61
 Side 2  free  transition at x/c =  0.0207   20

   5   rms: 0.8165E-03   max: 0.1097E-01   C at   20  2
       a = -5.000      CL =  0.1348
      Cm = -0.1596     CD =  0.00710   =>   CDf =  0.00506    CDp =  0.00204

 Side 1  free  transition at x/c =  0.7911   61
 Side 2  free  transition at x/c =  0.0206   20

   6   rms: 0.4193E-05   max: 0.5557E-04   C at   20  2
       a = -5.000      CL =  0.1348
      Cm = -0.1596     CD =  0.00710   =>   CDf =  0.00506    CDp =  0.00204
 plradd ia,ip,cpol            1          75  1.53999997E-03

 Point added to stored polar  1
 Point written to save file  aux_files\tp1e83e44a_713b_4928_a5ae_61792a422a05
 Dump file unspecified or not available

.OPERva   c>   Calculating wake trajectory ...
 Calculating source influence matrix ...

 Solving BL system ...

 Side 1  free  transition at x/c =  0.7911   61
 Side 2  free  transition at x/c =  0.0206   20

   1   rms: 0.7319E-01   max: -.9665E+00   C at   20  2   RLX: 0.517
       a = -4.750      CL =  0.1496
      Cm = -0.1598     CD =  0.00700   =>   CDf =  0.00506    CDp =  0.00195

 Side 1  free  transition at x/c =  0.7872   61
 Side 2  free  transition at x/c =  0.0232   20

   2   rms: 0.2138E-01   max: -.1493E+00   T at   20  2
       a = -4.750      CL =  0.1633
      Cm = -0.1599     CD =  0.00701   =>   CDf =  0.00506    CDp =  0.00195

 Side 1  free  transition at x/c =  0.7840   61
 Side 2  free  transition at x/c =  0.0315   22

   3   rms: 0.9330E-02   max: -.1443E+00   C at   22  2
       a = -4.750      CL =  0.1630
      Cm = -0.1599     CD =  0.00693   =>   CDf =  0.00504    CDp =  0.00189

 Side 1  free  transition at x/c =  0.7841   61
 Side 2  free  transition at x/c =  0.0329   22

   4   rms: 0.7264E-03   max: 0.1537E-01   C at   22  2
       a = -4.750      CL =  0.1631
      Cm = -0.1599     CD =  0.00693   =>   CDf =  0.00503    CDp =  0.00190

 Side 1  free  transition at x/c =  0.7841   61
 Side 2  free  transition at x/c =  0.0328   22

   5   rms: 0.1567E-05   max: -.2751E-04   C at   22  2
       a = -4.750      CL =  0.1631
      Cm = -0.1599     CD =  0.00693   =>   CDf =  0.00503    CDp =  0.00190
 plradd ia,ip,cpol            2          75  1.53999997E-03

 Point added to stored polar  1
 Point written to save file  aux_files\tp1e83e44a_713b_4928_a5ae_61792a422a05
 Dump file unspecified or not available

.OPERva   c>   Calculating wake trajectory ...
 Calculating source influence matrix ...

 Solving BL system ...

 Side 1  free  transition at x/c =  0.7841   61
 Side 2  free  transition at x/c =  0.0328   22

   1   rms: 0.9086E-01   max: -.1755E+01   C at   22  2   RLX: 0.285
       a = -4.500      CL =  0.1710
      Cm = -0.1600     CD =  0.00689   =>   CDf =  0.00503    CDp =  0.00186

 Side 1  free  transition at x/c =  0.7821   61
 Side 2  free  transition at x/c =  0.0354   22

   2   rms: 0.3961E-01   max: -.6094E+00   C at   22  2   RLX: 0.820
       a = -4.500      CL =  0.1874
      Cm = -0.1600     CD =  0.00687   =>   CDf =  0.00508    CDp =  0.00178

 Side 1  free  transition at x/c =  0.7788   61
 Side 2  free  transition at x/c =  0.0508   23

   3   rms: 0.2357E-01   max: -.5379E+00   C at   23  2   RLX: 0.930
       a = -4.500      CL =  0.1912
      Cm = -0.1603     CD =  0.00672   =>   CDf =  0.00498    CDp =  0.00174

 Side 1  free  transition at x/c =  0.7781   61
 Side 2  free  transition at x/c =  0.0535   23

   4   rms: 0.4917E-02   max: -.1289E+00   C at   23  2
       a = -4.500      CL =  0.1916
      Cm = -0.1603     CD =  0.00673   =>   CDf =  0.00497    CDp =  0.00176

 Side 1  free  transition at x/c =  0.7781   61
 Side 2  free  transition at x/c =  0.0539   24

   5   rms: 0.1195E-02   max: 0.1830E-01   D at   24  2
       a = -4.500      CL =  0.1916
      Cm = -0.1603     CD =  0.00673   =>   CDf =  0.00497    CDp =  0.00176

 Side 1  free  transition at x/c =  0.7781   61
 Side 2  free  transition at x/c =  0.0545   24

   6   rms: 0.6681E-04   max: -.1313E-02   D at   24  2
       a = -4.500      CL =  0.1916
      Cm = -0.1603     CD =  0.00673   =>   CDf =  0.00496    CDp =  0.00176
 plradd ia,ip,cpol            3          76  1.53999997E-03

 Point added to stored polar  1
 Point written to save file  aux_files\tp1e83e44a_713b_4928_a5ae_61792a422a05
 Dump file unspecified or not available

.OPERva   c>   Calculating wake trajectory ...
 Calculating source influence matrix ...

 Solving BL system ...

 Side 1  free  transition at x/c =  0.7781   61
 Side 2  free  transition at x/c =  0.0545   24

   1   rms: 0.8501E-01   max: 0.1125E+01   D at   24  2
       a = -4.250      CL =  0.2204
      Cm = -0.1608     CD =  0.00645   =>   CDf =  0.00497    CDp =  0.00149

 Side 1  free  transition at x/c =  0.7706   61
 Side 2  free  transition at x/c =  0.0637   24

   2   rms: 0.2749E-01   max: -.4496E+00   D at   24  2
       a = -4.250      CL =  0.2203
      Cm = -0.1606     CD =  0.00661   =>   CDf =  0.00497    CDp =  0.00164

 Side 1  free  transition at x/c =  0.7715   61
 Side 2  free  transition at x/c =  0.0930   27

   3   rms: 0.1968E-01   max: 0.2987E+00   D at   27  2
       a = -4.250      CL =  0.2199
      Cm = -0.1607     CD =  0.00640   =>   CDf =  0.00485    CDp =  0.00155

 Side 1  free  transition at x/c =  0.7715   61
 Side 2  free  transition at x/c =  0.1028   27

   4   rms: 0.2261E-02   max: 0.5783E-01   C at   27  2
       a = -4.250      CL =  0.2199
      Cm = -0.1607     CD =  0.00641   =>   CDf =  0.00481    CDp =  0.00160

 Side 1  free  transition at x/c =  0.7715   61
 Side 2  free  transition at x/c =  0.1023   27

   5   rms: 0.1059E-04   max: -.2638E-03   C at   27  2
       a = -4.250      CL =  0.2199
      Cm = -0.1607     CD =  0.00641   =>   CDf =  0.00481    CDp =  0.00160
 plradd ia,ip,cpol            4          76  1.53999997E-03

 Point added to stored polar  1
 Point written to save file  aux_files\tp1e83e44a_713b_4928_a5ae_61792a422a05
 Dump file unspecified or not available

.OPERva   c>   Calculating wake trajectory ...
 Calculating source influence matrix ...

 Solving BL system ...

 Side 1  free  transition at x/c =  0.7715   61
 Side 2  free  transition at x/c =  0.1023   27

   1   rms: 0.2024E+00   max: -.5109E+01   C at   27  2   RLX: 0.098
       a = -4.000      CL =  0.2227
      Cm = -0.1608     CD =  0.00639   =>   CDf =  0.00481    CDp =  0.00158

 Side 1  free  transition at x/c =  0.7708   61
 Side 2  free  transition at x/c =  0.1076   28

   2   rms: 0.1785E+00   max: 0.2411E+01   D at   28  2   RLX: 0.239
       a = -4.000      CL =  0.2286
      Cm = -0.1609     CD =  0.00625   =>   CDf =  0.00479    CDp =  0.00145

 Side 1  free  transition at x/c =  0.7693   61
 Side 2  free  transition at x/c =  0.1165   28

   3   rms: 0.1323E+00   max: -.3324E+01   C at   28  2   RLX: 0.150
       a = -4.000      CL =  0.2320
      Cm = -0.1608     CD =  0.00631   =>   CDf =  0.00477    CDp =  0.00154

 MRCHDU: Convergence failed at  29  side 2    Res =  0.1223E-01
 Side 1  free  transition at x/c =  0.7685   61
 Side 2  free  transition at x/c =  0.1244   29

   4   rms: 0.1194E+00   max: -.2300E+01   C at   29  2   RLX: 0.217
       a = -4.000      CL =  0.2353
      Cm = -0.1609     CD =  0.00622   =>   CDf =  0.00475    CDp =  0.00148

 Side 1  free  transition at x/c =  0.7676   61
 Side 2  free  transition at x/c =  0.1305   29

   5   rms: 0.8725E-01   max: -.2180E+01   C at   29  2   RLX: 0.229
       a = -4.000      CL =  0.2383
      Cm = -0.1609     CD =  0.00623   =>   CDf =  0.00473    CDp =  0.00150

 Side 1  free  transition at x/c =  0.7668   61
 Side 2  free  transition at x/c =  0.1366   30

   6   rms: 0.6476E-01   max: -.9889E+00   C at   30  2   RLX: 0.506
       a = -4.000      CL =  0.2429
      Cm = -0.1610     CD =  0.00613   =>   CDf =  0.00472    CDp =  0.00142

 Side 1  free  transition at x/c =  0.7657   60
 Side 2  free  transition at x/c =  0.1466   30

   7   rms: 0.5221E-01   max: -.1346E+01   C at   30  2   RLX: 0.371
       a = -4.000      CL =  0.2450
      Cm = -0.1610     CD =  0.00615   =>   CDf =  0.00469    CDp =  0.00146

 Side 1  free  transition at x/c =  0.7653   60
 Side 2  free  transition at x/c =  0.1545   31

   8   rms: 0.2973E-01   max: -.6592E+00   C at   31  2   RLX: 0.759
       a = -4.000      CL =  0.2471
      Cm = -0.1611     CD =  0.00608   =>   CDf =  0.00466    CDp =  0.00142

 Side 1  free  transition at x/c =  0.7649   60
 Side 2  free  transition at x/c =  0.1611   31

   9   rms: 0.1180E-01   max: -.3052E+00   C at   31  2
       a = -4.000      CL =  0.2479
      Cm = -0.1611     CD =  0.00608   =>   CDf =  0.00464    CDp =  0.00144

 Side 1  free  transition at x/c =  0.7648   60
 Side 2  free  transition at x/c =  0.1660   32

  10   rms: 0.1773E-02   max: -.2906E-01   D at   32  2
       a = -4.000      CL =  0.2479
      Cm = -0.1611     CD =  0.00607   =>   CDf =  0.00462    CDp =  0.00145

 Side 1  free  transition at x/c =  0.7648   60
 Side 2  free  transition at x/c =  0.1654   32

  11   rms: 0.9095E-05   max: 0.1380E-03   C at   32  2
       a = -4.000      CL =  0.2479
      Cm = -0.1611     CD =  0.00607   =>   CDf =  0.00462    CDp =  0.00145
 plradd ia,ip,cpol            5          76  1.53999997E-03

 Point added to stored polar  1
 Point written to save file  aux_files\tp1e83e44a_713b_4928_a5ae_61792a422a05
 Dump file unspecified or not available

.OPERva   c>   Calculating wake trajectory ...
 Calculating source influence matrix ...

 Solving BL system ...

 Side 1  free  transition at x/c =  0.7648   60
 Side 2  free  transition at x/c =  0.1654   32

   1   rms: 0.1808E+00   max: -.2801E+01   C at   32  2   RLX: 0.179
       a = -3.750      CL =  0.2530
      Cm = -0.1613     CD =  0.00597   =>   CDf =  0.00462    CDp =  0.00135

 Side 1  free  transition at x/c =  0.7637   60
 Side 2  free  transition at x/c =  0.1753   32

   2   rms: 0.1561E+00   max: -.3899E+01   C at   32  2   RLX: 0.128
       a = -3.750      CL =  0.2563
      Cm = -0.1613     CD =  0.00599   =>   CDf =  0.00459    CDp =  0.00140

 Side 1  free  transition at x/c =  0.7630   60
 Side 2  free  transition at x/c =  0.1839   33

   3   rms: 0.1188E+00   max: -.2477E+01   C at   33  2   RLX: 0.202
       a = -3.750      CL =  0.2603
      Cm = -0.1614     CD =  0.00592   =>   CDf =  0.00456    CDp =  0.00136

 Side 1  free  transition at x/c =  0.7621   60
 Side 2  free  transition at x/c =  0.1904   33

   4   rms: 0.7275E-01   max: -.1737E+01   C at   33  2   RLX: 0.288
       a = -3.750      CL =  0.2652
      Cm = -0.1614     CD =  0.00592   =>   CDf =  0.00456    CDp =  0.00136

 Side 1  free  transition at x/c =  0.7609   61
 Side 2  free  transition at x/c =  0.2021   33

   5   rms: 0.4911E-01   max: -.6611E+00   D at    2  1   RLX: 0.756
       a = -3.750      CL =  0.2739
      Cm = -0.1616     CD =  0.00585   =>   CDf =  0.00451    CDp =  0.00135

 Side 1  free  transition at x/c =  0.7586   61
 Side 2  free  transition at x/c =  0.2071   34

   6   rms: 0.1522E-01   max: 0.1941E+00   D at   34  2
       a = -3.750      CL =  0.2766
      Cm = -0.1616     CD =  0.00583   =>   CDf =  0.00451    CDp =  0.00132

 Side 1  free  transition at x/c =  0.7580   61
 Side 2  free  transition at x/c =  0.2200   34

   7   rms: 0.4785E-02   max: -.1047E+00   C at   34  2
       a = -3.750      CL =  0.2765
      Cm = -0.1616     CD =  0.00581   =>   CDf =  0.00446    CDp =  0.00135

 Side 1  free  transition at x/c =  0.7580   61
 Side 2  free  transition at x/c =  0.2191   34

   8   rms: 0.1511E-03   max: -.3645E-02   C at   34  2
       a = -3.750      CL =  0.2765
      Cm = -0.1616     CD =  0.00581   =>   CDf =  0.00446    CDp =  0.00135

 Side 1  free  transition at x/c =  0.7580   61
 Side 2  free  transition at x/c =  0.2192   34

   9   rms: 0.5603E-06   max: -.7191E-05   C at   61  1
       a = -3.750      CL =  0.2765
      Cm = -0.1616     CD =  0.00581   =>   CDf =  0.00446    CDp =  0.00135
 plradd ia,ip,cpol            6          77  1.53999997E-03

 Point added to stored polar  1
 Point written to save file  aux_files\tp1e83e44a_713b_4928_a5ae_61792a422a05
 Dump file unspecified or not available

.OPERva   c>   Calculating wake trajectory ...
 Calculating source influence matrix ...

 Solving BL system ...

 Side 1  free  transition at x/c =  0.7580   61
 Side 2  free  transition at x/c =  0.2192   34

   1   rms: 0.8768E-01   max: -.1845E+01   C at   34  2   RLX: 0.271
       a = -3.500      CL =  0.2842
      Cm = -0.1617     CD =  0.00579   =>   CDf =  0.00446    CDp =  0.00132

 Side 1  free  transition at x/c =  0.7558   61
 Side 2  free  transition at x/c =  0.2240   35

   2   rms: 0.5888E-01   max: 0.7295E+00   D at   35  2
       a = -3.500      CL =  0.3046
      Cm = -0.1619     CD =  0.00567   =>   CDf =  0.00446    CDp =  0.00120

 Side 1  free  transition at x/c =  0.7505   60
 Side 2  free  transition at x/c =  0.2366   35

   3   rms: 0.1342E-01   max: -.3005E+00   C at   35  2
       a = -3.500      CL =  0.3047
      Cm = -0.1618     CD =  0.00576   =>   CDf =  0.00446    CDp =  0.00130

 Side 1  free  transition at x/c =  0.7504   60
 Side 2  free  transition at x/c =  0.2504   36

   4   rms: 0.1214E-01   max: -.2680E+00   C at   36  2
       a = -3.500      CL =  0.3046
      Cm = -0.1619     CD =  0.00570   =>   CDf =  0.00442    CDp =  0.00129

 Side 1  free  transition at x/c =  0.7505   60
 Side 2  free  transition at x/c =  0.2497   36

   5   rms: 0.2545E-03   max: 0.4940E-02   C at   36  2
       a = -3.500      CL =  0.3046
      Cm = -0.1619     CD =  0.00571   =>   CDf =  0.00441    CDp =  0.00130

 Side 1  free  transition at x/c =  0.7505   60
 Side 2  free  transition at x/c =  0.2496   36

   6   rms: 0.8967E-06   max: -.1907E-04   C at   36  2
       a = -3.500      CL =  0.3046
      Cm = -0.1619     CD =  0.00571   =>   CDf =  0.00441    CDp =  0.00130
 plradd ia,ip,cpol            7          77  1.53999997E-03

 Point added to stored polar  1
 Point written to save file  aux_files\tp1e83e44a_713b_4928_a5ae_61792a422a05
 Dump file unspecified or not available

.OPERva   c>   Calculating wake trajectory ...
 Calculating source influence matrix ...

 Solving BL system ...

 Side 1  free  transition at x/c =  0.7505   60
 Side 2  free  transition at x/c =  0.2496   36

   1   rms: 0.6309E-01   max: -.1141E+01   C at   36  2   RLX: 0.438
       a = -3.250      CL =  0.3175
      Cm = -0.1621     CD =  0.00567   =>   CDf =  0.00441    CDp =  0.00126

 Side 1  free  transition at x/c =  0.7479   60
 Side 2  free  transition at x/c =  0.2535   37

   2   rms: 0.3406E-01   max: 0.3500E+00   D at   37  2
       a = -3.250      CL =  0.3339
      Cm = -0.1623     CD =  0.00562   =>   CDf =  0.00442    CDp =  0.00120

 Side 1  free  transition at x/c =  0.7440   60
 Side 2  free  transition at x/c =  0.2766   38

   3   rms: 0.6409E-02   max: 0.1252E+00   C at   38  2
       a = -3.250      CL =  0.3337
      Cm = -0.1623     CD =  0.00561   =>   CDf =  0.00435    CDp =  0.00126

 Side 1  free  transition at x/c =  0.7443   60
 Side 2  free  transition at x/c =  0.2728   38

   4   rms: 0.4453E-03   max: -.6808E-02   C at   38  2
       a = -3.250      CL =  0.3337
      Cm = -0.1623     CD =  0.00561   =>   CDf =  0.00436    CDp =  0.00125

 Side 1  free  transition at x/c =  0.7443   60
 Side 2  free  transition at x/c =  0.2730   38

   5   rms: 0.6263E-06   max: 0.6741E-05   C at   60  1
       a = -3.250      CL =  0.3337
      Cm = -0.1623     CD =  0.00561   =>   CDf =  0.00436    CDp =  0.00125
 plradd ia,ip,cpol            8          77  1.53999997E-03

 Point added to stored polar  1
 Point written to save file  aux_files\tp1e83e44a_713b_4928_a5ae_61792a422a05
 Dump file unspecified or not available

.OPERva   c>   Calculating wake trajectory ...
 Calculating source influence matrix ...

 Solving BL system ...

 Side 1  free  transition at x/c =  0.7443   60
 Side 2  free  transition at x/c =  0.2730   38

   1   rms: 0.7217E-01   max: -.9949E+00   C at   38  2   RLX: 0.503
       a = -3.000      CL =  0.3481
      Cm = -0.1625     CD =  0.00555   =>   CDf =  0.00437    CDp =  0.00118

 Side 1  free  transition at x/c =  0.7404   61
 Side 2  free  transition at x/c =  0.2828   37

   2   rms: 0.4746E-01   max: -.6406E+00   T at    2  1   RLX: 0.780
       a = -3.000      CL =  0.3591
      Cm = -0.1625     CD =  0.00559   =>   CDf =  0.00436    CDp =  0.00123

 Side 1  free  transition at x/c =  0.7377   61
 Side 2  free  transition at x/c =  0.2965   38

   3   rms: 0.1100E-01   max: -.2245E+00   C at   38  2
       a = -3.000      CL =  0.3619
      Cm = -0.1625     CD =  0.00556   =>   CDf =  0.00433    CDp =  0.00122

 Side 1  free  transition at x/c =  0.7370   61
 Side 2  free  transition at x/c =  0.2999   39

   4   rms: 0.3944E-03   max: -.5027E-02   C at   39  2
       a = -3.000      CL =  0.3619
      Cm = -0.1625     CD =  0.00555   =>   CDf =  0.00433    CDp =  0.00123

 Side 1  free  transition at x/c =  0.7370   61
 Side 2  free  transition at x/c =  0.3000   39

   5   rms: 0.1995E-05   max: -.2011E-04   D at   61  1
       a = -3.000      CL =  0.3619
      Cm = -0.1625     CD =  0.00555   =>   CDf =  0.00432    CDp =  0.00123
 plradd ia,ip,cpol            9          78  1.53999997E-03

 Point added to stored polar  1
 Point written to save file  aux_files\tp1e83e44a_713b_4928_a5ae_61792a422a05
 Dump file unspecified or not available

.OPERva   c>   Calculating wake trajectory ...
 Calculating source influence matrix ...

 Solving BL system ...

 Side 1  free  transition at x/c =  0.7369   61
 Side 2  free  transition at x/c =  0.3000   39

   1   rms: 0.6290E-01   max: 0.7220E+00   D at   39  2
       a = -2.750      CL =  0.3897
      Cm = -0.1627     CD =  0.00548   =>   CDf =  0.00433    CDp =  0.00115

 Side 1  free  transition at x/c =  0.7303   60
 Side 2  free  transition at x/c =  0.3411   41

   2   rms: 0.1144E-01   max: 0.1703E+00   C at   41  2
       a = -2.750      CL =  0.3908
      Cm = -0.1630     CD =  0.00544   =>   CDf =  0.00422    CDp =  0.00122

 Side 1  free  transition at x/c =  0.7307   60
 Side 2  free  transition at x/c =  0.3324   41

   3   rms: 0.1315E-02   max: 0.1663E-01   D at   39  2
       a = -2.750      CL =  0.3909
      Cm = -0.1630     CD =  0.00546   =>   CDf =  0.00425    CDp =  0.00121

 Side 1  free  transition at x/c =  0.7307   60
 Side 2  free  transition at x/c =  0.3318   41

   4   rms: 0.4009E-04   max: -.4806E-03   D at   41  2
       a = -2.750      CL =  0.3909
      Cm = -0.1630     CD =  0.00546   =>   CDf =  0.00425    CDp =  0.00121
 plradd ia,ip,cpol           10          78  0.42918000    

 Point added to stored polar  1
 Point written to save file  aux_files\tp1e83e44a_713b_4928_a5ae_61792a422a05
 Dump file unspecified or not available

.OPERva   c>   Calculating wake trajectory ...
 Calculating source influence matrix ...

 Solving BL system ...

 Side 1  free  transition at x/c =  0.7307   60
 Side 2  free  transition at x/c =  0.3317   41

   1   rms: 0.7999E-01   max: 0.9565E+00   D at   41  2
       a = -2.500      CL =  0.4196
      Cm = -0.1634     CD =  0.00533   =>   CDf =  0.00425    CDp =  0.00107

 Side 1  free  transition at x/c =  0.7220   60
 Side 2  free  transition at x/c =  0.3426   41

   2   rms: 0.2660E-01   max: -.4124E+00   D at   41  2
       a = -2.500      CL =  0.4192
      Cm = -0.1632     CD =  0.00546   =>   CDf =  0.00429    CDp =  0.00116

 Side 1  free  transition at x/c =  0.7232   60
 Side 2  free  transition at x/c =  0.3545   42

   3   rms: 0.5366E-02   max: -.8083E-01   D at   42  2
       a = -2.500      CL =  0.4192
      Cm = -0.1632     CD =  0.00544   =>   CDf =  0.00422    CDp =  0.00122

 Side 1  free  transition at x/c =  0.7231   60
 Side 2  free  transition at x/c =  0.3518   42

   4   rms: 0.6622E-04   max: 0.1167E-02   D at   42  2
       a = -2.500      CL =  0.4192
      Cm = -0.1632     CD =  0.00544   =>   CDf =  0.00423    CDp =  0.00121
 plradd ia,ip,cpol           11          78  0.39862999    

 Point added to stored polar  1
 Point written to save file  aux_files\tp1e83e44a_713b_4928_a5ae_61792a422a05
 Dump file unspecified or not available

.OPERva   c>   Calculating wake trajectory ...
 Calculating source influence matrix ...

 Solving BL system ...

 Side 1  free  transition at x/c =  0.7231   60
 Side 2  free  transition at x/c =  0.3518   42

   1   rms: 0.4451E-01   max: 0.2984E+00   D at   42  2
       a = -2.250      CL =  0.4470
      Cm = -0.1633     CD =  0.00545   =>   CDf =  0.00423    CDp =  0.00123

 Side 1  free  transition at x/c =  0.7169   60
 Side 2  free  transition at x/c =  0.3596   41

   2   rms: 0.5470E-02   max: -.7457E-01   C at   41  2
       a = -2.250      CL =  0.4479
      Cm = -0.1635     CD =  0.00544   =>   CDf =  0.00424    CDp =  0.00120

 Side 1  free  transition at x/c =  0.7166   60
 Side 2  free  transition at x/c =  0.3608   41

   3   rms: 0.1993E-03   max: 0.1754E-02   D at    4  1
       a = -2.250      CL =  0.4479
      Cm = -0.1635     CD =  0.00544   =>   CDf =  0.00424    CDp =  0.00120

 Side 1  free  transition at x/c =  0.7166   60
 Side 2  free  transition at x/c =  0.3608   41

   4   rms: 0.5546E-06   max: 0.4837E-05   C at   60  1
       a = -2.250      CL =  0.4479
      Cm = -0.1635     CD =  0.00544   =>   CDf =  0.00424    CDp =  0.00120
 plradd ia,ip,cpol           12          79  0.39862999    

 Point added to stored polar  1
 Point written to save file  aux_files\tp1e83e44a_713b_4928_a5ae_61792a422a05
 Dump file unspecified or not available

.OPERva   c>   Calculating wake trajectory ...
 Calculating source influence matrix ...

 Solving BL system ...

 Side 1  free  transition at x/c =  0.7166   60
 Side 2  free  transition at x/c =  0.3608   41

   1   rms: 0.3962E-01   max: 0.1288E+00   D at   41  2
       a = -2.000      CL =  0.4770
      Cm = -0.1638     CD =  0.00545   =>   CDf =  0.00424    CDp =  0.00121

 Side 1  free  transition at x/c =  0.7087   60
 Side 2  free  transition at x/c =  0.3666   42

   2   rms: 0.6696E-02   max: 0.7619E-01   D at   42  2
       a = -2.000      CL =  0.4765
      Cm = -0.1638     CD =  0.00544   =>   CDf =  0.00427    CDp =  0.00117

 Side 1  free  transition at x/c =  0.7097   60
 Side 2  free  transition at x/c =  0.3697   42

   3   rms: 0.7874E-03   max: 0.1218E-01   C at   42  2
       a = -2.000      CL =  0.4765
      Cm = -0.1638     CD =  0.00544   =>   CDf =  0.00425    CDp =  0.00120

 Side 1  free  transition at x/c =  0.7096   60
 Side 2  free  transition at x/c =  0.3693   42

   4   rms: 0.1489E-05   max: -.1871E-04   D at   43  2
       a = -2.000      CL =  0.4765
      Cm = -0.1638     CD =  0.00544   =>   CDf =  0.00425    CDp =  0.00119
 plradd ia,ip,cpol           13          79  0.39862999    

 Point added to stored polar  1
 Point written to save file  aux_files\tp1e83e44a_713b_4928_a5ae_61792a422a05
 Dump file unspecified or not available

.OPERva   c>   Calculating wake trajectory ...
 Calculating source influence matrix ...

 Solving BL system ...

 Side 1  free  transition at x/c =  0.7096   60
 Side 2  free  transition at x/c =  0.3693   42

   1   rms: 0.4332E-01   max: -.2444E+00   C at   42  2
       a = -1.750      CL =  0.5046
      Cm = -0.1639     CD =  0.00546   =>   CDf =  0.00424    CDp =  0.00122

 Side 1  free  transition at x/c =  0.7032   60
 Side 2  free  transition at x/c =  0.3770   41

   2   rms: 0.3728E-02   max: -.7451E-01   C at   41  2
       a = -1.750      CL =  0.5049
      Cm = -0.1640     CD =  0.00546   =>   CDf =  0.00427    CDp =  0.00119

 Side 1  free  transition at x/c =  0.7030   60
 Side 2  free  transition at x/c =  0.3780   41

   3   rms: 0.1929E-03   max: 0.2065E-02   D at    4  1
       a = -1.750      CL =  0.5049
      Cm = -0.1640     CD =  0.00546   =>   CDf =  0.00427    CDp =  0.00120

 Side 1  free  transition at x/c =  0.7030   60
 Side 2  free  transition at x/c =  0.3780   41

   4   rms: 0.6694E-06   max: 0.6173E-05   C at   41  2
       a = -1.750      CL =  0.5049
      Cm = -0.1640     CD =  0.00546   =>   CDf =  0.00427    CDp =  0.00120
 plradd ia,ip,cpol           14          80  0.39862999    

 Point added to stored polar  1
 Point written to save file  aux_files\tp1e83e44a_713b_4928_a5ae_61792a422a05
 Dump file unspecified or not available

.OPERva   c>   Calculating wake trajectory ...
 Calculating source influence matrix ...

 Solving BL system ...

 Side 1  free  transition at x/c =  0.7030   60
 Side 2  free  transition at x/c =  0.3780   41

   1   rms: 0.3931E-01   max: 0.1198E+00   D at   41  2
       a = -1.500      CL =  0.5341
      Cm = -0.1644     CD =  0.00547   =>   CDf =  0.00427    CDp =  0.00120

 Side 1  free  transition at x/c =  0.6948   60
 Side 2  free  transition at x/c =  0.3855   42

   2   rms: 0.7464E-02   max: -.1094E+00   C at   42  2
       a = -1.500      CL =  0.5336
      Cm = -0.1643     CD =  0.00546   =>   CDf =  0.00428    CDp =  0.00118

 Side 1  free  transition at x/c =  0.6960   60
 Side 2  free  transition at x/c =  0.3884   42

   3   rms: 0.1582E-03   max: 0.2568E-02   C at   42  2
       a = -1.500      CL =  0.5336
      Cm = -0.1643     CD =  0.00546   =>   CDf =  0.00426    CDp =  0.00120

 Side 1  free  transition at x/c =  0.6960   60
 Side 2  free  transition at x/c =  0.3883   42

   4   rms: 0.5395E-06   max: -.4294E-05   C at   42  2
       a = -1.500      CL =  0.5336
      Cm = -0.1643     CD =  0.00546   =>   CDf =  0.00426    CDp =  0.00120
 plradd ia,ip,cpol           15          80  0.39862999    

 Point added to stored polar  1
 Point written to save file  aux_files\tp1e83e44a_713b_4928_a5ae_61792a422a05
 Dump file unspecified or not available

.OPERva   c>   Calculating wake trajectory ...
 Calculating source influence matrix ...

 Solving BL system ...

 Side 1  free  transition at x/c =  0.6960   60
 Side 2  free  transition at x/c =  0.3883   42

   1   rms: 0.4334E-01   max: -.3111E+00   C at   42  2
       a = -1.250      CL =  0.5617
      Cm = -0.1644     CD =  0.00549   =>   CDf =  0.00426    CDp =  0.00123

 Side 1  free  transition at x/c =  0.6886   59
 Side 2  free  transition at x/c =  0.3951   43

   2   rms: 0.6816E-02   max: 0.7967E-01   D at   43  2
       a = -1.250      CL =  0.5616
      Cm = -0.1644     CD =  0.00549   =>   CDf =  0.00430    CDp =  0.00120

 Side 1  free  transition at x/c =  0.6886   59
 Side 2  free  transition at x/c =  0.4002   43

   3   rms: 0.3606E-02   max: -.5486E-01   D at   43  2
       a = -1.250      CL =  0.5616
      Cm = -0.1644     CD =  0.00549   =>   CDf =  0.00427    CDp =  0.00122

 Side 1  free  transition at x/c =  0.6886   59
 Side 2  free  transition at x/c =  0.3986   43

   4   rms: 0.1034E-03   max: -.1673E-02   D at   43  2
       a = -1.250      CL =  0.5616
      Cm = -0.1644     CD =  0.00549   =>   CDf =  0.00428    CDp =  0.00121

 Side 1  free  transition at x/c =  0.6886   59
 Side 2  free  transition at x/c =  0.3986   43

   5   rms: 0.5599E-06   max: 0.5651E-05   C at   59  1
       a = -1.250      CL =  0.5616
      Cm = -0.1644     CD =  0.00549   =>   CDf =  0.00428    CDp =  0.00121
 plradd ia,ip,cpol           16          80  0.36815000    

 Point added to stored polar  1
 Point written to save file  aux_files\tp1e83e44a_713b_4928_a5ae_61792a422a05
 Dump file unspecified or not available

.OPERva   c>   Calculating wake trajectory ...
 Calculating source influence matrix ...

 Solving BL system ...

 Side 1  free  transition at x/c =  0.6886   59
 Side 2  free  transition at x/c =  0.3986   43

   1   rms: 0.4571E-01   max: 0.3590E+00   D at   43  2
       a = -1.000      CL =  0.5908
      Cm = -0.1648     CD =  0.00546   =>   CDf =  0.00426    CDp =  0.00119

 Side 1  free  transition at x/c =  0.6807   60
 Side 2  free  transition at x/c =  0.4070   42

   2   rms: 0.7436E-02   max: -.1321E+00   C at   42  2
       a = -1.000      CL =  0.5903
      Cm = -0.1647     CD =  0.00550   =>   CDf =  0.00429    CDp =  0.00121

 Side 1  free  transition at x/c =  0.6817   60
 Side 2  free  transition at x/c =  0.4094   42

   3   rms: 0.3142E-03   max: -.4030E-02   C at   42  2
       a = -1.000      CL =  0.5903
      Cm = -0.1647     CD =  0.00550   =>   CDf =  0.00428    CDp =  0.00122

 Side 1  free  transition at x/c =  0.6817   60
 Side 2  free  transition at x/c =  0.4095   42

   4   rms: 0.1056E-05   max: -.1437E-04   C at   60  1
       a = -1.000      CL =  0.5903
      Cm = -0.1647     CD =  0.00550   =>   CDf =  0.00428    CDp =  0.00122
 plradd ia,ip,cpol           17          81  0.36815000    

 Point added to stored polar  1
 Point written to save file  aux_files\tp1e83e44a_713b_4928_a5ae_61792a422a05
 Dump file unspecified or not available

.OPERva   c>   Calculating wake trajectory ...
 Calculating source influence matrix ...

 Solving BL system ...

 Side 1  free  transition at x/c =  0.6817   60
 Side 2  free  transition at x/c =  0.4095   42

   1   rms: 0.4146E-01   max: -.2783E+00   C at   42  2
       a = -0.750      CL =  0.6184
      Cm = -0.1649     CD =  0.00554   =>   CDf =  0.00428    CDp =  0.00126

 Side 1  free  transition at x/c =  0.6741   59
 Side 2  free  transition at x/c =  0.4184   43

   2   rms: 0.6669E-02   max: -.1266E+00   C at   43  2
       a = -0.750      CL =  0.6180
      Cm = -0.1648     CD =  0.00553   =>   CDf =  0.00429    CDp =  0.00123

 Side 1  free  transition at x/c =  0.6742   59
 Side 2  free  transition at x/c =  0.4212   43

   3   rms: 0.1137E-03   max: 0.2017E-02   C at   43  2
       a = -0.750      CL =  0.6180
      Cm = -0.1648     CD =  0.00553   =>   CDf =  0.00428    CDp =  0.00125

 Side 1  free  transition at x/c =  0.6742   59
 Side 2  free  transition at x/c =  0.4212   43

   4   rms: 0.5500E-06   max: -.6583E-05   C at   43  2
       a = -0.750      CL =  0.6180
      Cm = -0.1648     CD =  0.00553   =>   CDf =  0.00428    CDp =  0.00124
 plradd ia,ip,cpol           18          81  0.35295001    

 Point added to stored polar  1
 Point written to save file  aux_files\tp1e83e44a_713b_4928_a5ae_61792a422a05
 Dump file unspecified or not available

.OPERva   c>   Calculating wake trajectory ...
 Calculating source influence matrix ...

 Solving BL system ...

 Side 1  free  transition at x/c =  0.6742   59
 Side 2  free  transition at x/c =  0.4212   43

   1   rms: 0.4350E-01   max: -.4377E+00   C at   43  2
       a = -0.500      CL =  0.6472
      Cm = -0.1652     CD =  0.00552   =>   CDf =  0.00426    CDp =  0.00126

 Side 1  free  transition at x/c =  0.6673   60
 Side 2  free  transition at x/c =  0.4273   42

   2   rms: 0.9909E-02   max: -.2171E+00   C at   42  2
       a = -0.500      CL =  0.6468
      Cm = -0.1651     CD =  0.00555   =>   CDf =  0.00430    CDp =  0.00125

 Side 1  free  transition at x/c =  0.6681   60
 Side 2  free  transition at x/c =  0.4326   43

   3   rms: 0.2822E-02   max: -.5222E-01   C at   43  2
       a = -0.500      CL =  0.6468
      Cm = -0.1651     CD =  0.00553   =>   CDf =  0.00427    CDp =  0.00126

 Side 1  free  transition at x/c =  0.6681   60
 Side 2  free  transition at x/c =  0.4335   43

   4   rms: 0.9074E-04   max: 0.1728E-02   C at   43  2
       a = -0.500      CL =  0.6468
      Cm = -0.1651     CD =  0.00553   =>   CDf =  0.00427    CDp =  0.00126
 plradd ia,ip,cpol           19          82  0.35295001    

 Point added to stored polar  1
 Point written to save file  aux_files\tp1e83e44a_713b_4928_a5ae_61792a422a05
 Dump file unspecified or not available

.OPERva   c>   Calculating wake trajectory ...
 Calculating source influence matrix ...

 Solving BL system ...

 Side 1  free  transition at x/c =  0.6681   60
 Side 2  free  transition at x/c =  0.4335   43

   1   rms: 0.4687E-01   max: -.4661E+00   C at   43  2
       a = -0.250      CL =  0.6751
      Cm = -0.1654     CD =  0.00554   =>   CDf =  0.00427    CDp =  0.00127

 Side 1  free  transition at x/c =  0.6596   60
 Side 2  free  transition at x/c =  0.4419   43

   2   rms: 0.7953E-02   max: -.1845E+00   C at   43  2
       a = -0.250      CL =  0.6744
      Cm = -0.1652     CD =  0.00558   =>   CDf =  0.00430    CDp =  0.00128

 Side 1  free  transition at x/c =  0.6604   60
 Side 2  free  transition at x/c =  0.4441   44

   3   rms: 0.4404E-02   max: 0.5482E-01   D at   44  2
       a = -0.250      CL =  0.6744
      Cm = -0.1652     CD =  0.00557   =>   CDf =  0.00429    CDp =  0.00128

 Side 1  free  transition at x/c =  0.6604   60
 Side 2  free  transition at x/c =  0.4464   44

   4   rms: 0.1095E-02   max: -.1666E-01   D at   44  2
       a = -0.250      CL =  0.6744
      Cm = -0.1652     CD =  0.00557   =>   CDf =  0.00428    CDp =  0.00129

 Side 1  free  transition at x/c =  0.6604   60
 Side 2  free  transition at x/c =  0.4459   44

   5   rms: 0.1806E-04   max: -.2824E-03   D at   44  2
       a = -0.250      CL =  0.6744
      Cm = -0.1652     CD =  0.00557   =>   CDf =  0.00428    CDp =  0.00129
 plradd ia,ip,cpol           20          82  0.35295001    

 Point added to stored polar  1
 Point written to save file  aux_files\tp1e83e44a_713b_4928_a5ae_61792a422a05
 Dump file unspecified or not available

.OPERva   c>   Calculating wake trajectory ...
 Calculating source influence matrix ...

 Solving BL system ...

 Side 1  free  transition at x/c =  0.6604   60
 Side 2  free  transition at x/c =  0.4459   44

   1   rms: 0.4759E-01   max: 0.3522E+00   D at   44  2
       a =  0.000      CL =  0.7016
      Cm = -0.1652     CD =  0.00561   =>   CDf =  0.00428    CDp =  0.00133

 Side 1  free  transition at x/c =  0.6534   59
 Side 2  free  transition at x/c =  0.4582   44

   2   rms: 0.7388E-02   max: -.1637E+00   C at   44  2
       a =  0.000      CL =  0.7029
      Cm = -0.1655     CD =  0.00558   =>   CDf =  0.00427    CDp =  0.00131

 Side 1  free  transition at x/c =  0.6539   59
 Side 2  free  transition at x/c =  0.4596   45

   3   rms: 0.4261E-02   max: 0.5591E-01   D at   45  2
       a =  0.000      CL =  0.7029
      Cm = -0.1655     CD =  0.00557   =>   CDf =  0.00426    CDp =  0.00131

 Side 1  free  transition at x/c =  0.6539   59
 Side 2  free  transition at x/c =  0.4619   45

   4   rms: 0.1112E-02   max: -.1705E-01   D at   45  2
       a =  0.000      CL =  0.7029
      Cm = -0.1655     CD =  0.00557   =>   CDf =  0.00425    CDp =  0.00132

 Side 1  free  transition at x/c =  0.6539   59
 Side 2  free  transition at x/c =  0.4614   45

   5   rms: 0.2140E-04   max: -.3432E-03   D at   45  2
       a =  0.000      CL =  0.7029
      Cm = -0.1655     CD =  0.00557   =>   CDf =  0.00425    CDp =  0.00132
 plradd ia,ip,cpol           21          82  0.35295001    

 Point added to stored polar  1
 Point written to save file  aux_files\tp1e83e44a_713b_4928_a5ae_61792a422a05
 Dump file unspecified or not available

.OPERva   c>   Calculating wake trajectory ...
 Calculating source influence matrix ...

 Solving BL system ...

 Side 1  free  transition at x/c =  0.6539   59
 Side 2  free  transition at x/c =  0.4614   45

   1   rms: 0.5103E-01   max: 0.4325E+00   D at   45  2
       a =  0.250      CL =  0.7313
      Cm = -0.1658     CD =  0.00556   =>   CDf =  0.00422    CDp =  0.00134

 Side 1  free  transition at x/c =  0.6449   60
 Side 2  free  transition at x/c =  0.4743   44

   2   rms: 0.1157E-01   max: -.2414E+00   C at   44  2
       a =  0.250      CL =  0.7305
      Cm = -0.1656     CD =  0.00561   =>   CDf =  0.00427    CDp =  0.00134

 Side 1  free  transition at x/c =  0.6461   60
 Side 2  free  transition at x/c =  0.4793   45

   3   rms: 0.2259E-02   max: -.4193E-01   C at   45  2
       a =  0.250      CL =  0.7305
      Cm = -0.1656     CD =  0.00560   =>   CDf =  0.00424    CDp =  0.00136

 Side 1  free  transition at x/c =  0.6460   60
 Side 2  free  transition at x/c =  0.4800   45

   4   rms: 0.3563E-04   max: 0.6915E-03   C at   45  2
       a =  0.250      CL =  0.7305
      Cm = -0.1656     CD =  0.00560   =>   CDf =  0.00424    CDp =  0.00136
 plradd ia,ip,cpol           22          83  0.32262000    

 Point added to stored polar  1
 Point written to save file  aux_files\tp1e83e44a_713b_4928_a5ae_61792a422a05
 Dump file unspecified or not available

.OPERva   c>   Calculating wake trajectory ...
 Calculating source influence matrix ...

 Solving BL system ...

 Side 1  free  transition at x/c =  0.6460   60
 Side 2  free  transition at x/c =  0.4800   45

   1   rms: 0.5496E-01   max: -.7011E+00   C at   45  2   RLX: 0.713
       a =  0.500      CL =  0.7498
      Cm = -0.1656     CD =  0.00563   =>   CDf =  0.00424    CDp =  0.00139

 Side 1  free  transition at x/c =  0.6412   59
 Side 2  free  transition at x/c =  0.4896   45

   2   rms: 0.1883E-01   max: -.3538E+00   C at   45  2
       a =  0.500      CL =  0.7588
      Cm = -0.1658     CD =  0.00562   =>   CDf =  0.00423    CDp =  0.00139

 Side 1  free  transition at x/c =  0.6389   59
 Side 2  free  transition at x/c =  0.5003   46

   3   rms: 0.1354E-02   max: -.2304E-01   D at   46  2
       a =  0.500      CL =  0.7587
      Cm = -0.1658     CD =  0.00561   =>   CDf =  0.00421    CDp =  0.00140

 Side 1  free  transition at x/c =  0.6390   59
 Side 2  free  transition at x/c =  0.4996   46

   4   rms: 0.1838E-04   max: -.3947E-03   C at   46  2
       a =  0.500      CL =  0.7587
      Cm = -0.1658     CD =  0.00561   =>   CDf =  0.00421    CDp =  0.00140
 plradd ia,ip,cpol           23          83  0.32262000    

 Point added to stored polar  1
 Point written to save file  aux_files\tp1e83e44a_713b_4928_a5ae_61792a422a05
 Dump file unspecified or not available

.OPERva   c>   Calculating wake trajectory ...
 Calculating source influence matrix ...

 Solving BL system ...

 Side 1  free  transition at x/c =  0.6390   59
 Side 2  free  transition at x/c =  0.4996   46

   1   rms: 0.5431E-01   max: -.8282E+00   C at   46  2   RLX: 0.604
       a =  0.750      CL =  0.7757
      Cm = -0.1659     CD =  0.00561   =>   CDf =  0.00421    CDp =  0.00140

 Side 1  free  transition at x/c =  0.6332   59
 Side 2  free  transition at x/c =  0.5076   46

   2   rms: 0.2122E-01   max: -.3602E+00   C at   46  2
       a =  0.750      CL =  0.7861
      Cm = -0.1658     CD =  0.00567   =>   CDf =  0.00422    CDp =  0.00145

 Side 1  free  transition at x/c =  0.6300   59
 Side 2  free  transition at x/c =  0.5204   47

   3   rms: 0.8306E-02   max: -.1781E+00   C at   47  2
       a =  0.750      CL =  0.7859
      Cm = -0.1658     CD =  0.00565   =>   CDf =  0.00421    CDp =  0.00144

 Side 1  free  transition at x/c =  0.6301   59
 Side 2  free  transition at x/c =  0.5201   47

   4   rms: 0.6651E-04   max: -.1199E-02   D at   47  2
       a =  0.750      CL =  0.7859
      Cm = -0.1658     CD =  0.00565   =>   CDf =  0.00420    CDp =  0.00145
 plradd ia,ip,cpol           24          83  0.32262000    

 Point added to stored polar  1
 Point written to save file  aux_files\tp1e83e44a_713b_4928_a5ae_61792a422a05
 Dump file unspecified or not available

.OPERva   c>   Calculating wake trajectory ...
 Calculating source influence matrix ...

 Solving BL system ...

 Side 1  free  transition at x/c =  0.6301   59
 Side 2  free  transition at x/c =  0.5200   47

   1   rms: 0.5501E-01   max: -.8788E+00   C at   47  2   RLX: 0.569
       a =  1.000      CL =  0.8010
      Cm = -0.1657     CD =  0.00570   =>   CDf =  0.00416    CDp =  0.00154

 Side 1  free  transition at x/c =  0.6255   59
 Side 2  free  transition at x/c =  0.5323   47

   2   rms: 0.2861E-01   max: -.3895E+00   C at   47  2
       a =  1.000      CL =  0.8140
      Cm = -0.1660     CD =  0.00567   =>   CDf =  0.00418    CDp =  0.00149

 Side 1  free  transition at x/c =  0.6212   59
 Side 2  free  transition at x/c =  0.5399   47

   3   rms: 0.3589E-02   max: -.8593E-01   C at   47  2
       a =  1.000      CL =  0.8138
      Cm = -0.1660     CD =  0.00568   =>   CDf =  0.00418    CDp =  0.00150

 Side 1  free  transition at x/c =  0.6216   59
 Side 2  free  transition at x/c =  0.5408   48

   4   rms: 0.2189E-02   max: -.3177E-01   C at   48  2
       a =  1.000      CL =  0.8138
      Cm = -0.1660     CD =  0.00567   =>   CDf =  0.00418    CDp =  0.00150

 Side 1  free  transition at x/c =  0.6216   59
 Side 2  free  transition at x/c =  0.5417   48

   5   rms: 0.1177E-03   max: 0.1892E-02   C at   48  2
       a =  1.000      CL =  0.8138
      Cm = -0.1660     CD =  0.00567   =>   CDf =  0.00417    CDp =  0.00150

 Side 1  free  transition at x/c =  0.6216   59
 Side 2  free  transition at x/c =  0.5416   48

   6   rms: 0.6605E-06   max: 0.6733E-05   C at   59  1
       a =  1.000      CL =  0.8138
      Cm = -0.1660     CD =  0.00567   =>   CDf =  0.00417    CDp =  0.00150
 plradd ia,ip,cpol           25          84  0.30750000    

 Point added to stored polar  1
 Point written to save file  aux_files\tp1e83e44a_713b_4928_a5ae_61792a422a05
 Dump file unspecified or not available

.OPERva   c>   Calculating wake trajectory ...
 Calculating source influence matrix ...

 Solving BL system ...

 Side 1  free  transition at x/c =  0.6216   59
 Side 2  free  transition at x/c =  0.5416   48

   1   rms: 0.5843E-01   max: -.6760E+00   C at   48  2   RLX: 0.740
       a =  1.250      CL =  0.8340
      Cm = -0.1660     CD =  0.00569   =>   CDf =  0.00417    CDp =  0.00152

 Side 1  free  transition at x/c =  0.6132   58
 Side 2  free  transition at x/c =  0.5549   48

   2   rms: 0.1835E-01   max: -.3808E+00   C at   48  2
       a =  1.250      CL =  0.8406
      Cm = -0.1659     CD =  0.00574   =>   CDf =  0.00419    CDp =  0.00155

 Side 1  free  transition at x/c =  0.6116   58
 Side 2  free  transition at x/c =  0.5688   49

   3   rms: 0.3753E-02   max: 0.8287E-01   C at   49  2
       a =  1.250      CL =  0.8406
      Cm = -0.1659     CD =  0.00572   =>   CDf =  0.00415    CDp =  0.00157

 Side 1  free  transition at x/c =  0.6117   58
 Side 2  free  transition at x/c =  0.5662   49

   4   rms: 0.2551E-03   max: -.5915E-02   C at   49  2
       a =  1.250      CL =  0.8406
      Cm = -0.1659     CD =  0.00573   =>   CDf =  0.00416    CDp =  0.00157

 Side 1  free  transition at x/c =  0.6117   58
 Side 2  free  transition at x/c =  0.5663   49

   5   rms: 0.1548E-05   max: -.3250E-04   C at   49  2
       a =  1.250      CL =  0.8406
      Cm = -0.1659     CD =  0.00573   =>   CDf =  0.00416    CDp =  0.00157
 plradd ia,ip,cpol           26          84  0.30750000    

 Point added to stored polar  1
 Point written to save file  aux_files\tp1e83e44a_713b_4928_a5ae_61792a422a05
 Dump file unspecified or not available

.OPERva   c>   Calculating wake trajectory ...
 Calculating source influence matrix ...

 Solving BL system ...

 Side 1  free  transition at x/c =  0.6117   58
 Side 2  free  transition at x/c =  0.5663   49

   1   rms: 0.5732E-01   max: -.9688E+00   C at   49  2   RLX: 0.516
       a =  1.500      CL =  0.8552
      Cm = -0.1660     CD =  0.00573   =>   CDf =  0.00415    CDp =  0.00158

 Side 1  free  transition at x/c =  0.6064   58
 Side 2  free  transition at x/c =  0.5729   50

   2   rms: 0.2917E-01   max: 0.2949E+00   D at   50  2
       a =  1.500      CL =  0.8681
      Cm = -0.1660     CD =  0.00576   =>   CDf =  0.00416    CDp =  0.00160

 Side 1  free  transition at x/c =  0.6017   58
 Side 2  free  transition at x/c =  0.5886   50

   3   rms: 0.1066E-02   max: -.1508E-01   D at   51  2
       a =  1.500      CL =  0.8678
      Cm = -0.1659     CD =  0.00578   =>   CDf =  0.00414    CDp =  0.00163

 Side 1  free  transition at x/c =  0.6020   58
 Side 2  free  transition at x/c =  0.5884   50

   4   rms: 0.8785E-05   max: 0.1616E-03   C at   50  2
       a =  1.500      CL =  0.8678
      Cm = -0.1659     CD =  0.00578   =>   CDf =  0.00414    CDp =  0.00164
 plradd ia,ip,cpol           27          84  0.27739000    

 Point added to stored polar  1
 Point written to save file  aux_files\tp1e83e44a_713b_4928_a5ae_61792a422a05
 Dump file unspecified or not available

.OPERva   c>   Calculating wake trajectory ...
 Calculating source influence matrix ...

 Solving BL system ...

 Side 1  free  transition at x/c =  0.6020   58
 Side 2  free  transition at x/c =  0.5884   50

   1   rms: 0.4905E-01   max: -.6160E+00   C at   50  2   RLX: 0.812
       a =  1.750      CL =  0.8891
      Cm = -0.1658     CD =  0.00587   =>   CDf =  0.00408    CDp =  0.00178

 Side 1  free  transition at x/c =  0.5948   58
 Side 2  free  transition at x/c =  0.6074   51

   2   rms: 0.1011E-01   max: -.8256E-01   C at   51  2
       a =  1.750      CL =  0.8950
      Cm = -0.1660     CD =  0.00582   =>   CDf =  0.00412    CDp =  0.00171

 Side 1  free  transition at x/c =  0.5926   58
 Side 2  free  transition at x/c =  0.6085   51

   3   rms: 0.4873E-03   max: -.7853E-02   C at   51  2
       a =  1.750      CL =  0.8949
      Cm = -0.1659     CD =  0.00583   =>   CDf =  0.00412    CDp =  0.00171

 Side 1  free  transition at x/c =  0.5927   58
 Side 2  free  transition at x/c =  0.6087   51

   4   rms: 0.8692E-06   max: 0.1077E-04   C at   58  1
       a =  1.750      CL =  0.8949
      Cm = -0.1659     CD =  0.00583   =>   CDf =  0.00412    CDp =  0.00171
 plradd ia,ip,cpol           28          85  0.27739000    

 Point added to stored polar  1
 Point written to save file  aux_files\tp1e83e44a_713b_4928_a5ae_61792a422a05
 Dump file unspecified or not available

.OPERva   c>   Calculating wake trajectory ...
 Calculating source influence matrix ...

 Solving BL system ...

 Side 1  free  transition at x/c =  0.5927   58
 Side 2  free  transition at x/c =  0.6087   51

   1   rms: 0.5486E-01   max: -.7000E+00   C at   51  2   RLX: 0.714
       a =  2.000      CL =  0.9144
      Cm = -0.1660     CD =  0.00586   =>   CDf =  0.00412    CDp =  0.00174

 Side 1  free  transition at x/c =  0.5831   58
 Side 2  free  transition at x/c =  0.6188   51

   2   rms: 0.1548E-01   max: -.2659E+00   C at   51  2
       a =  2.000      CL =  0.9208
      Cm = -0.1657     CD =  0.00594   =>   CDf =  0.00415    CDp =  0.00180

 Side 1  free  transition at x/c =  0.5813   57
 Side 2  free  transition at x/c =  0.6305   52

   3   rms: 0.4307E-02   max: 0.8887E-01   C at   52  2
       a =  2.000      CL =  0.9211
      Cm = -0.1657     CD =  0.00592   =>   CDf =  0.00412    CDp =  0.00180

 Side 1  free  transition at x/c =  0.5814   57
 Side 2  free  transition at x/c =  0.6279   52

   4   rms: 0.1974E-03   max: -.4170E-02   C at   52  2
       a =  2.000      CL =  0.9211
      Cm = -0.1657     CD =  0.00592   =>   CDf =  0.00412    CDp =  0.00180

 Side 1  free  transition at x/c =  0.5814   57
 Side 2  free  transition at x/c =  0.6280   52

   5   rms: 0.1410E-05   max: -.2909E-04   C at   52  2
       a =  2.000      CL =  0.9211
      Cm = -0.1657     CD =  0.00592   =>   CDf =  0.00412    CDp =  0.00180
 plradd ia,ip,cpol           29          85  0.27739000    

 Point added to stored polar  1
 Point written to save file  aux_files\tp1e83e44a_713b_4928_a5ae_61792a422a05
 Dump file unspecified or not available

.OPERva   c>   Calculating wake trajectory ...
 Calculating source influence matrix ...

 Solving BL system ...

 Side 1  free  transition at x/c =  0.5814   57
 Side 2  free  transition at x/c =  0.6280   52

   1   rms: 0.5001E-01   max: -.6327E+00   C at   52  2   RLX: 0.790
       a =  2.250      CL =  0.9430
      Cm = -0.1658     CD =  0.00595   =>   CDf =  0.00412    CDp =  0.00183

 Side 1  free  transition at x/c =  0.5687   57
 Side 2  free  transition at x/c =  0.6365   52

   2   rms: 0.1142E-01   max: -.2046E+00   C at   52  2
       a =  2.250      CL =  0.9470
      Cm = -0.1655     CD =  0.00604   =>   CDf =  0.00417    CDp =  0.00187

 Side 1  free  transition at x/c =  0.5683   57
 Side 2  free  transition at x/c =  0.6467   53

   3   rms: 0.3932E-02   max: 0.8297E-01   C at   53  2
       a =  2.250      CL =  0.9470
      Cm = -0.1655     CD =  0.00603   =>   CDf =  0.00413    CDp =  0.00190

 Side 1  free  transition at x/c =  0.5682   57
 Side 2  free  transition at x/c =  0.6442   53

   4   rms: 0.1573E-03   max: -.3326E-02   C at   53  2
       a =  2.250      CL =  0.9470
      Cm = -0.1655     CD =  0.00603   =>   CDf =  0.00414    CDp =  0.00189

 Side 1  free  transition at x/c =  0.5682   57
 Side 2  free  transition at x/c =  0.6443   53

   5   rms: 0.7004E-06   max: -.6170E-05   D at    4  2
       a =  2.250      CL =  0.9470
      Cm = -0.1655     CD =  0.00603   =>   CDf =  0.00414    CDp =  0.00189
 plradd ia,ip,cpol           30          85  0.24747001    

 Point added to stored polar  1
 Point written to save file  aux_files\tp1e83e44a_713b_4928_a5ae_61792a422a05
 Dump file unspecified or not available

.OPERva   c>   Calculating wake trajectory ...
 Calculating source influence matrix ...

 Solving BL system ...

 Side 1  free  transition at x/c =  0.5682   57
 Side 2  free  transition at x/c =  0.6443   53

   1   rms: 0.5208E-01   max: -.5187E+00   C at   53  2   RLX: 0.964
       a =  2.500      CL =  0.9706
      Cm = -0.1650     CD =  0.00620   =>   CDf =  0.00407    CDp =  0.00213

 Side 1  free  transition at x/c =  0.5537   57
 Side 2  free  transition at x/c =  0.6530   52

   2   rms: 0.1108E-01   max: -.1873E+00   C at   52  2
       a =  2.500      CL =  0.9730
      Cm = -0.1652     CD =  0.00616   =>   CDf =  0.00419    CDp =  0.00197

 Side 1  free  transition at x/c =  0.5555   57
 Side 2  free  transition at x/c =  0.6607   53

   3   rms: 0.3343E-02   max: 0.6232E-01   C at   53  2
       a =  2.500      CL =  0.9730
      Cm = -0.1653     CD =  0.00614   =>   CDf =  0.00414    CDp =  0.00200

 Side 1  free  transition at x/c =  0.5551   57
 Side 2  free  transition at x/c =  0.6588   53

   4   rms: 0.8750E-04   max: -.1709E-02   C at   53  2
       a =  2.500      CL =  0.9730
      Cm = -0.1653     CD =  0.00614   =>   CDf =  0.00415    CDp =  0.00199
 plradd ia,ip,cpol           31          86  0.20313001    

 Point added to stored polar  1
 Point written to save file  aux_files\tp1e83e44a_713b_4928_a5ae_61792a422a05
 Dump file unspecified or not available

.OPERva   c>   Calculating wake trajectory ...
 Calculating source influence matrix ...

 Solving BL system ...

 Side 1  free  transition at x/c =  0.5551   57
 Side 2  free  transition at x/c =  0.6589   53

   1   rms: 0.5189E-01   max: -.4498E+00   C at   53  2
       a =  2.750      CL =  0.9975
      Cm = -0.1647     CD =  0.00631   =>   CDf =  0.00415    CDp =  0.00216

 Side 1  free  transition at x/c =  0.5422   56
 Side 2  free  transition at x/c =  0.6683   53

   2   rms: 0.8705E-02   max: -.1688E+00   C at   53  2
       a =  2.750      CL =  0.9989
      Cm = -0.1650     CD =  0.00627   =>   CDf =  0.00419    CDp =  0.00208

 Side 1  free  transition at x/c =  0.5426   56
 Side 2  free  transition at x/c =  0.6734   54

   3   rms: 0.1254E-02   max: -.2096E-01   D at   54  2
       a =  2.750      CL =  0.9989
      Cm = -0.1650     CD =  0.00626   =>   CDf =  0.00417    CDp =  0.00209

 Side 1  free  transition at x/c =  0.5426   56
 Side 2  free  transition at x/c =  0.6727   54

   4   rms: 0.2014E-05   max: 0.2234E-04   D at   54  2
       a =  2.750      CL =  0.9989
      Cm = -0.1650     CD =  0.00626   =>   CDf =  0.00417    CDp =  0.00209
 plradd ia,ip,cpol           32          86  0.13172001    

 Point added to stored polar  1
 Point written to save file  aux_files\tp1e83e44a_713b_4928_a5ae_61792a422a05
 Dump file unspecified or not available

.OPERva   c>   Calculating wake trajectory ...
 Calculating source influence matrix ...

 Solving BL system ...

 Side 1  free  transition at x/c =  0.5426   56
 Side 2  free  transition at x/c =  0.6727   54

   1   rms: 0.5014E-01   max: 0.4460E+00   C at   56  1
       a =  3.000      CL =  1.0242
      Cm = -0.1646     CD =  0.00639   =>   CDf =  0.00417    CDp =  0.00222

 Side 1  free  transition at x/c =  0.5294   55
 Side 2  free  transition at x/c =  0.6835   54

   2   rms: 0.7321E-02   max: -.1567E+00   C at   54  2
       a =  3.000      CL =  1.0245
      Cm = -0.1647     CD =  0.00639   =>   CDf =  0.00420    CDp =  0.00218

 Side 1  free  transition at x/c =  0.5302   55
 Side 2  free  transition at x/c =  0.6862   55

   3   rms: 0.2349E-02   max: -.2916E-01   C at   55  2
       a =  3.000      CL =  1.0245
      Cm = -0.1647     CD =  0.00638   =>   CDf =  0.00419    CDp =  0.00219

 Side 1  free  transition at x/c =  0.5303   55
 Side 2  free  transition at x/c =  0.6869   55

   4   rms: 0.1941E-03   max: -.2886E-02   D at   55  2
       a =  3.000      CL =  1.0245
      Cm = -0.1647     CD =  0.00638   =>   CDf =  0.00419    CDp =  0.00220

 Side 1  free  transition at x/c =  0.5303   55
 Side 2  free  transition at x/c =  0.6869   55

   5   rms: 0.1614E-05   max: -.2454E-04   D at   55  2
       a =  3.000      CL =  1.0245
      Cm = -0.1647     CD =  0.00638   =>   CDf =  0.00419    CDp =  0.00220
 plradd ia,ip,cpol           33          86  9.18999985E-02

 Point added to stored polar  1
 Point written to save file  aux_files\tp1e83e44a_713b_4928_a5ae_61792a422a05
 Dump file unspecified or not available

.OPERva   c>   Calculating wake trajectory ...
 Calculating source influence matrix ...

 Solving BL system ...

 Side 1  free  transition at x/c =  0.5303   55
 Side 2  free  transition at x/c =  0.6869   55

   1   rms: 0.5049E-01   max: 0.5120E+00   C at   55  1
       a =  3.250      CL =  1.0501
      Cm = -0.1644     CD =  0.00649   =>   CDf =  0.00411    CDp =  0.00239

 Side 1  free  transition at x/c =  0.5169   55
 Side 2  free  transition at x/c =  0.6975   54

   2   rms: 0.7651E-02   max: -.1339E+00   C at   54  2
       a =  3.250      CL =  1.0496
      Cm = -0.1643     CD =  0.00652   =>   CDf =  0.00422    CDp =  0.00231

 Side 1  free  transition at x/c =  0.5176   55
 Side 2  free  transition at x/c =  0.7003   54

   3   rms: 0.7368E-03   max: 0.7928E-02   D at    7  1
       a =  3.250      CL =  1.0496
      Cm = -0.1643     CD =  0.00652   =>   CDf =  0.00421    CDp =  0.00232

 Side 1  free  transition at x/c =  0.5176   55
 Side 2  free  transition at x/c =  0.7003   54

   4   rms: 0.7281E-06   max: -.4750E-05   C at   55  2
       a =  3.250      CL =  1.0496
      Cm = -0.1643     CD =  0.00652   =>   CDf =  0.00421    CDp =  0.00232
 plradd ia,ip,cpol           34          87  6.79000020E-02

 Point added to stored polar  1
 Point written to save file  aux_files\tp1e83e44a_713b_4928_a5ae_61792a422a05
 Dump file unspecified or not available

.OPERva   c>   Calculating wake trajectory ...
 Calculating source influence matrix ...

 Solving BL system ...

 Side 1  free  transition at x/c =  0.5176   55
 Side 2  free  transition at x/c =  0.7003   54

   1   rms: 0.4289E-01   max: 0.4401E+00   C at   55  1
       a =  3.500      CL =  1.0759
      Cm = -0.1641     CD =  0.00663   =>   CDf =  0.00421    CDp =  0.00243

 Side 1  free  transition at x/c =  0.5052   54
 Side 2  free  transition at x/c =  0.7107   55

   2   rms: 0.3528E-02   max: -.7235E-01   C at   54  1
       a =  3.500      CL =  1.0746
      Cm = -0.1638     CD =  0.00666   =>   CDf =  0.00423    CDp =  0.00243

 Side 1  free  transition at x/c =  0.5057   54
 Side 2  free  transition at x/c =  0.7108   55

   3   rms: 0.2264E-02   max: -.5578E-01   C at   54  1
       a =  3.500      CL =  1.0746
      Cm = -0.1638     CD =  0.00666   =>   CDf =  0.00423    CDp =  0.00243

 Side 1  free  transition at x/c =  0.5057   54
 Side 2  free  transition at x/c =  0.7108   55

   4   rms: 0.2324E-02   max: -.5725E-01   C at   54  1
       a =  3.500      CL =  1.0746
      Cm = -0.1638     CD =  0.00666   =>   CDf =  0.00423    CDp =  0.00243

 Side 1  free  transition at x/c =  0.5057   54
 Side 2  free  transition at x/c =  0.7108   55

   5   rms: 0.2323E-02   max: -.5720E-01   C at   54  1
       a =  3.500      CL =  1.0746
      Cm = -0.1638     CD =  0.00666   =>   CDf =  0.00423    CDp =  0.00243

 Side 1  free  transition at x/c =  0.5057   54
 Side 2  free  transition at x/c =  0.7108   55

   6   rms: 0.2322E-02   max: -.5720E-01   C at   54  1
       a =  3.500      CL =  1.0746
      Cm = -0.1638     CD =  0.00666   =>   CDf =  0.00423    CDp =  0.00243

 Side 1  free  transition at x/c =  0.5057   54
 Side 2  free  transition at x/c =  0.7108   55

   7   rms: 0.2323E-02   max: -.5721E-01   C at   54  1
       a =  3.500      CL =  1.0746
      Cm = -0.1638     CD =  0.00666   =>   CDf =  0.00423    CDp =  0.00243

 Side 1  free  transition at x/c =  0.5057   54
 Side 2  free  transition at x/c =  0.7108   55

   8   rms: 0.2323E-02   max: -.5720E-01   C at   54  1
       a =  3.500      CL =  1.0746
      Cm = -0.1638     CD =  0.00666   =>   CDf =  0.00423    CDp =  0.00243

 Side 1  free  transition at x/c =  0.5057   54
 Side 2  free  transition at x/c =  0.7108   55

   9   rms: 0.2323E-02   max: -.5721E-01   C at   54  1
       a =  3.500      CL =  1.0746
      Cm = -0.1638     CD =  0.00666   =>   CDf =  0.00423    CDp =  0.00243

 Side 1  free  transition at x/c =  0.5057   54
 Side 2  free  transition at x/c =  0.7108   55

  10   rms: 0.2322E-02   max: -.5720E-01   C at   54  1
       a =  3.500      CL =  1.0746
      Cm = -0.1638     CD =  0.00666   =>   CDf =  0.00423    CDp =  0.00243

 Side 1  free  transition at x/c =  0.5057   54
 Side 2  free  transition at x/c =  0.7108   55

  11   rms: 0.2323E-02   max: -.5721E-01   C at   54  1
       a =  3.500      CL =  1.0746
      Cm = -0.1638     CD =  0.00666   =>   CDf =  0.00423    CDp =  0.00243

 Side 1  free  transition at x/c =  0.5057   54
 Side 2  free  transition at x/c =  0.7108   55

  12   rms: 0.2323E-02   max: -.5720E-01   C at   54  1
       a =  3.500      CL =  1.0746
      Cm = -0.1638     CD =  0.00666   =>   CDf =  0.00423    CDp =  0.00243

 Side 1  free  transition at x/c =  0.5057   54
 Side 2  free  transition at x/c =  0.7108   55

  13   rms: 0.2323E-02   max: -.5722E-01   C at   54  1
       a =  3.500      CL =  1.0746
      Cm = -0.1638     CD =  0.00666   =>   CDf =  0.00423    CDp =  0.00243

 Side 1  free  transition at x/c =  0.5057   54
 Side 2  free  transition at x/c =  0.7108   55

  14   rms: 0.2323E-02   max: -.5721E-01   C at   54  1
       a =  3.500      CL =  1.0746
      Cm = -0.1638     CD =  0.00666   =>   CDf =  0.00423    CDp =  0.00243

 Side 1  free  transition at x/c =  0.5057   54
 Side 2  free  transition at x/c =  0.7108   55

  15   rms: 0.2323E-02   max: -.5721E-01   C at   54  1
       a =  3.500      CL =  1.0746
      Cm = -0.1638     CD =  0.00666   =>   CDf =  0.00423    CDp =  0.00243

 Side 1  free  transition at x/c =  0.5057   54
 Side 2  free  transition at x/c =  0.7108   55

  16   rms: 0.2323E-02   max: -.5721E-01   C at   54  1
       a =  3.500      CL =  1.0746
      Cm = -0.1638     CD =  0.00666   =>   CDf =  0.00423    CDp =  0.00243

 Side 1  free  transition at x/c =  0.5057   54
 Side 2  free  transition at x/c =  0.7108   55

  17   rms: 0.2323E-02   max: -.5721E-01   C at   54  1
       a =  3.500      CL =  1.0746
      Cm = -0.1638     CD =  0.00666   =>   CDf =  0.00423    CDp =  0.00243

 Side 1  free  transition at x/c =  0.5057   54
 Side 2  free  transition at x/c =  0.7108   55

  18   rms: 0.2322E-02   max: -.5720E-01   C at   54  1
       a =  3.500      CL =  1.0746
      Cm = -0.1638     CD =  0.00666   =>   CDf =  0.00423    CDp =  0.00243

 Side 1  free  transition at x/c =  0.5057   54
 Side 2  free  transition at x/c =  0.7108   55

  19   rms: 0.2323E-02   max: -.5723E-01   C at   54  1
       a =  3.500      CL =  1.0746
      Cm = -0.1638     CD =  0.00666   =>   CDf =  0.00423    CDp =  0.00243

 Side 1  free  transition at x/c =  0.5057   54
 Side 2  free  transition at x/c =  0.7108   55

  20   rms: 0.2322E-02   max: -.5720E-01   C at   54  1
       a =  3.500      CL =  1.0746
      Cm = -0.1638     CD =  0.00666   =>   CDf =  0.00423    CDp =  0.00243

 Side 1  free  transition at x/c =  0.5057   54
 Side 2  free  transition at x/c =  0.7108   55

  21   rms: 0.2323E-02   max: -.5721E-01   C at   54  1
       a =  3.500      CL =  1.0746
      Cm = -0.1638     CD =  0.00666   =>   CDf =  0.00423    CDp =  0.00243

 Side 1  free  transition at x/c =  0.5057   54
 Side 2  free  transition at x/c =  0.7108   55

  22   rms: 0.2323E-02   max: -.5720E-01   C at   54  1
       a =  3.500      CL =  1.0746
      Cm = -0.1638     CD =  0.00666   =>   CDf =  0.00423    CDp =  0.00243

 Side 1  free  transition at x/c =  0.5057   54
 Side 2  free  transition at x/c =  0.7108   55

  23   rms: 0.2323E-02   max: -.5721E-01   C at   54  1
       a =  3.500      CL =  1.0746
      Cm = -0.1638     CD =  0.00666   =>   CDf =  0.00423    CDp =  0.00243

 Side 1  free  transition at x/c =  0.5057   54
 Side 2  free  transition at x/c =  0.7108   55

  24   rms: 0.2322E-02   max: -.5720E-01   C at   54  1
       a =  3.500      CL =  1.0746
      Cm = -0.1638     CD =  0.00666   =>   CDf =  0.00423    CDp =  0.00243

 Side 1  free  transition at x/c =  0.5057   54
 Side 2  free  transition at x/c =  0.7108   55

  25   rms: 0.2323E-02   max: -.5721E-01   C at   54  1
       a =  3.500      CL =  1.0746
      Cm = -0.1638     CD =  0.00666   =>   CDf =  0.00423    CDp =  0.00243

 Side 1  free  transition at x/c =  0.5057   54
 Side 2  free  transition at x/c =  0.7108   55

  26   rms: 0.2323E-02   max: -.5722E-01   C at   54  1
       a =  3.500      CL =  1.0746
      Cm = -0.1638     CD =  0.00666   =>   CDf =  0.00423    CDp =  0.00243

 Side 1  free  transition at x/c =  0.5057   54
 Side 2  free  transition at x/c =  0.7108   55

  27   rms: 0.2323E-02   max: -.5720E-01   C at   54  1
       a =  3.500      CL =  1.0746
      Cm = -0.1638     CD =  0.00666   =>   CDf =  0.00423    CDp =  0.00243

 Side 1  free  transition at x/c =  0.5057   54
 Side 2  free  transition at x/c =  0.7108   55

  28   rms: 0.2323E-02   max: -.5721E-01   C at   54  1
       a =  3.500      CL =  1.0746
      Cm = -0.1638     CD =  0.00666   =>   CDf =  0.00423    CDp =  0.00243

 Side 1  free  transition at x/c =  0.5057   54
 Side 2  free  transition at x/c =  0.7108   55

  29   rms: 0.2323E-02   max: -.5722E-01   C at   54  1
       a =  3.500      CL =  1.0746
      Cm = -0.1638     CD =  0.00666   =>   CDf =  0.00423    CDp =  0.00243

 Side 1  free  transition at x/c =  0.5057   54
 Side 2  free  transition at x/c =  0.7108   55

  30   rms: 0.2323E-02   max: -.5720E-01   C at   54  1
       a =  3.500      CL =  1.0746
      Cm = -0.1638     CD =  0.00666   =>   CDf =  0.00423    CDp =  0.00243

 Side 1  free  transition at x/c =  0.5057   54
 Side 2  free  transition at x/c =  0.7108   55

  31   rms: 0.2323E-02   max: -.5721E-01   C at   54  1
       a =  3.500      CL =  1.0746
      Cm = -0.1638     CD =  0.00666   =>   CDf =  0.00423    CDp =  0.00243

 Side 1  free  transition at x/c =  0.5057   54
 Side 2  free  transition at x/c =  0.7108   55

  32   rms: 0.2323E-02   max: -.5720E-01   C at   54  1
       a =  3.500      CL =  1.0746
      Cm = -0.1638     CD =  0.00666   =>   CDf =  0.00423    CDp =  0.00243

 Side 1  free  transition at x/c =  0.5057   54
 Side 2  free  transition at x/c =  0.7108   55

  33   rms: 0.2323E-02   max: -.5721E-01   C at   54  1
       a =  3.500      CL =  1.0746
      Cm = -0.1638     CD =  0.00666   =>   CDf =  0.00423    CDp =  0.00243

 Side 1  free  transition at x/c =  0.5057   54
 Side 2  free  transition at x/c =  0.7108   55

  34   rms: 0.2323E-02   max: -.5722E-01   C at   54  1
       a =  3.500      CL =  1.0746
      Cm = -0.1638     CD =  0.00666   =>   CDf =  0.00423    CDp =  0.00243

 Side 1  free  transition at x/c =  0.5057   54
 Side 2  free  transition at x/c =  0.7108   55

  35   rms: 0.2323E-02   max: -.5721E-01   C at   54  1
       a =  3.500      CL =  1.0746
      Cm = -0.1638     CD =  0.00666   =>   CDf =  0.00423    CDp =  0.00243

 Side 1  free  transition at x/c =  0.5057   54
 Side 2  free  transition at x/c =  0.7108   55

  36   rms: 0.2323E-02   max: -.5720E-01   C at   54  1
       a =  3.500      CL =  1.0746
      Cm = -0.1638     CD =  0.00666   =>   CDf =  0.00423    CDp =  0.00243

 Side 1  free  transition at x/c =  0.5057   54
 Side 2  free  transition at x/c =  0.7108   55

  37   rms: 0.2323E-02   max: -.5721E-01   C at   54  1
       a =  3.500      CL =  1.0746
      Cm = -0.1638     CD =  0.00666   =>   CDf =  0.00423    CDp =  0.00243

 Side 1  free  transition at x/c =  0.5057   54
 Side 2  free  transition at x/c =  0.7108   55

  38   rms: 0.2323E-02   max: -.5720E-01   C at   54  1
       a =  3.500      CL =  1.0746
      Cm = -0.1638     CD =  0.00666   =>   CDf =  0.00423    CDp =  0.00243

 Side 1  free  transition at x/c =  0.5057   54
 Side 2  free  transition at x/c =  0.7108   55

  39   rms: 0.2323E-02   max: -.5721E-01   C at   54  1
       a =  3.500      CL =  1.0746
      Cm = -0.1638     CD =  0.00666   =>   CDf =  0.00423    CDp =  0.00243

 Side 1  free  transition at x/c =  0.5057   54
 Side 2  free  transition at x/c =  0.7108   55

  40   rms: 0.2323E-02   max: -.5721E-01   C at   54  1
       a =  3.500      CL =  1.0746
      Cm = -0.1638     CD =  0.00666   =>   CDf =  0.00423    CDp =  0.00243

 Side 1  free  transition at x/c =  0.5057   54
 Side 2  free  transition at x/c =  0.7108   55

  41   rms: 0.2323E-02   max: -.5721E-01   C at   54  1
       a =  3.500      CL =  1.0746
      Cm = -0.1638     CD =  0.00666   =>   CDf =  0.00423    CDp =  0.00243

 Side 1  free  transition at x/c =  0.5057   54
 Side 2  free  transition at x/c =  0.7108   55

  42   rms: 0.2323E-02   max: -.5722E-01   C at   54  1
       a =  3.500      CL =  1.0746
      Cm = -0.1638     CD =  0.00666   =>   CDf =  0.00423    CDp =  0.00243

 Side 1  free  transition at x/c =  0.5057   54
 Side 2  free  transition at x/c =  0.7108   55

  43   rms: 0.2322E-02   max: -.5720E-01   C at   54  1
       a =  3.500      CL =  1.0746
      Cm = -0.1638     CD =  0.00666   =>   CDf =  0.00423    CDp =  0.00243

 Side 1  free  transition at x/c =  0.5057   54
 Side 2  free  transition at x/c =  0.7108   55

  44   rms: 0.2323E-02   max: -.5720E-01   C at   54  1
       a =  3.500      CL =  1.0746
      Cm = -0.1638     CD =  0.00666   =>   CDf =  0.00423    CDp =  0.00243

 Side 1  free  transition at x/c =  0.5057   54
 Side 2  free  transition at x/c =  0.7108   55

  45   rms: 0.2323E-02   max: -.5721E-01   C at   54  1
       a =  3.500      CL =  1.0746
      Cm = -0.1638     CD =  0.00666   =>   CDf =  0.00423    CDp =  0.00243

 Side 1  free  transition at x/c =  0.5057   54
 Side 2  free  transition at x/c =  0.7108   55

  46   rms: 0.2322E-02   max: -.5720E-01   C at   54  1
       a =  3.500      CL =  1.0746
      Cm = -0.1638     CD =  0.00666   =>   CDf =  0.00423    CDp =  0.00243

 Side 1  free  transition at x/c =  0.5057   54
 Side 2  free  transition at x/c =  0.7108   55

  47   rms: 0.2322E-02   max: -.5720E-01   C at   54  1
       a =  3.500      CL =  1.0746
      Cm = -0.1638     CD =  0.00666   =>   CDf =  0.00423    CDp =  0.00243

 Side 1  free  transition at x/c =  0.5057   54
 Side 2  free  transition at x/c =  0.7108   55

  48   rms: 0.2323E-02   max: -.5722E-01   C at   54  1
       a =  3.500      CL =  1.0746
      Cm = -0.1638     CD =  0.00666   =>   CDf =  0.00423    CDp =  0.00243

 Side 1  free  transition at x/c =  0.5057   54
 Side 2  free  transition at x/c =  0.7108   55

  49   rms: 0.2323E-02   max: -.5721E-01   C at   54  1
       a =  3.500      CL =  1.0746
      Cm = -0.1638     CD =  0.00666   =>   CDf =  0.00423    CDp =  0.00243

 Side 1  free  transition at x/c =  0.5057   54
 Side 2  free  transition at x/c =  0.7108   55

  50   rms: 0.2322E-02   max: -.5719E-01   C at   54  1
       a =  3.500      CL =  1.0746
      Cm = -0.1638     CD =  0.00666   =>   CDf =  0.00423    CDp =  0.00243

 Side 1  free  transition at x/c =  0.5057   54
 Side 2  free  transition at x/c =  0.7108   55

  51   rms: 0.2323E-02   max: -.5721E-01   C at   54  1
       a =  3.500      CL =  1.0746
      Cm = -0.1638     CD =  0.00666   =>   CDf =  0.00423    CDp =  0.00243

 Side 1  free  transition at x/c =  0.5057   54
 Side 2  free  transition at x/c =  0.7108   55

  52   rms: 0.2323E-02   max: -.5720E-01   C at   54  1
       a =  3.500      CL =  1.0746
      Cm = -0.1638     CD =  0.00666   =>   CDf =  0.00423    CDp =  0.00243

 Side 1  free  transition at x/c =  0.5057   54
 Side 2  free  transition at x/c =  0.7108   55

  53   rms: 0.2323E-02   max: -.5720E-01   C at   54  1
       a =  3.500      CL =  1.0746
      Cm = -0.1638     CD =  0.00666   =>   CDf =  0.00423    CDp =  0.00243

 Side 1  free  transition at x/c =  0.5057   54
 Side 2  free  transition at x/c =  0.7108   55

  54   rms: 0.2322E-02   max: -.5720E-01   C at   54  1
       a =  3.500      CL =  1.0746
      Cm = -0.1638     CD =  0.00666   =>   CDf =  0.00423    CDp =  0.00243

 Side 1  free  transition at x/c =  0.5057   54
 Side 2  free  transition at x/c =  0.7108   55

  55   rms: 0.2323E-02   max: -.5721E-01   C at   54  1
       a =  3.500      CL =  1.0746
      Cm = -0.1638     CD =  0.00666   =>   CDf =  0.00423    CDp =  0.00243

 Side 1  free  transition at x/c =  0.5057   54
 Side 2  free  transition at x/c =  0.7108   55

  56   rms: 0.2322E-02   max: -.5720E-01   C at   54  1
       a =  3.500      CL =  1.0746
      Cm = -0.1638     CD =  0.00666   =>   CDf =  0.00423    CDp =  0.00243

 Side 1  free  transition at x/c =  0.5057   54
 Side 2  free  transition at x/c =  0.7108   55

  57   rms: 0.2323E-02   max: -.5722E-01   C at   54  1
       a =  3.500      CL =  1.0746
      Cm = -0.1638     CD =  0.00666   =>   CDf =  0.00423    CDp =  0.00243

 Side 1  free  transition at x/c =  0.5057   54
 Side 2  free  transition at x/c =  0.7108   55

  58   rms: 0.2322E-02   max: -.5720E-01   C at   54  1
       a =  3.500      CL =  1.0746
      Cm = -0.1638     CD =  0.00666   =>   CDf =  0.00423    CDp =  0.00243

 Side 1  free  transition at x/c =  0.5057   54
 Side 2  free  transition at x/c =  0.7108   55

  59   rms: 0.2323E-02   max: -.5721E-01   C at   54  1
       a =  3.500      CL =  1.0746
      Cm = -0.1638     CD =  0.00666   =>   CDf =  0.00423    CDp =  0.00243

 Side 1  free  transition at x/c =  0.5057   54
 Side 2  free  transition at x/c =  0.7108   55

  60   rms: 0.2323E-02   max: -.5721E-01   C at   54  1
       a =  3.500      CL =  1.0746
      Cm = -0.1638     CD =  0.00666   =>   CDf =  0.00423    CDp =  0.00243

 Side 1  free  transition at x/c =  0.5057   54
 Side 2  free  transition at x/c =  0.7108   55

  61   rms: 0.2323E-02   max: -.5721E-01   C at   54  1
       a =  3.500      CL =  1.0746
      Cm = -0.1638     CD =  0.00666   =>   CDf =  0.00423    CDp =  0.00243

 Side 1  free  transition at x/c =  0.5057   54
 Side 2  free  transition at x/c =  0.7108   55

  62   rms: 0.2323E-02   max: -.5720E-01   C at   54  1
       a =  3.500      CL =  1.0746
      Cm = -0.1638     CD =  0.00666   =>   CDf =  0.00423    CDp =  0.00243

 Side 1  free  transition at x/c =  0.5057   54
 Side 2  free  transition at x/c =  0.7108   55

  63   rms: 0.2323E-02   max: -.5721E-01   C at   54  1
       a =  3.500      CL =  1.0746
      Cm = -0.1638     CD =  0.00666   =>   CDf =  0.00423    CDp =  0.00243

 Side 1  free  transition at x/c =  0.5057   54
 Side 2  free  transition at x/c =  0.7108   55

  64   rms: 0.2323E-02   max: -.5720E-01   C at   54  1
       a =  3.500      CL =  1.0746
      Cm = -0.1638     CD =  0.00666   =>   CDf =  0.00423    CDp =  0.00243

[...]

   9   rms: 0.1348E+01   max: -.2852E+02   C at   67  2   RLX: 0.018
       a =  7.500      CL =  1.3672
      Cm = -0.1388     CD =  0.01207   =>   CDf =  0.00518    CDp =  0.00689

 Side 1  free  transition at x/c =  0.1733   36
 Side 2  free  transition at x/c =  0.9612   67

  10   rms: 0.1272E+01   max: -.2380E+02   C at   67  2   RLX: 0.021
       a =  7.500      CL =  1.3673
      Cm = -0.1388     CD =  0.01206   =>   CDf =  0.00518    CDp =  0.00689

 Side 1  free  transition at x/c =  0.1732   36
 Side 2  free  transition at x/c =  0.9680   68

  11   rms: 0.1041E+01   max: -.2010E+02   C at   68  2   RLX: 0.025
       a =  7.500      CL =  1.3674
      Cm = -0.1388     CD =  0.01206   =>   CDf =  0.00517    CDp =  0.00689

 Side 1  free  transition at x/c =  0.1731   36
 Side 2  free  transition at x/c =  0.9754   68

  12   rms: 0.1601E+01   max: -.2845E+02   C at   68  2   RLX: 0.018
       a =  7.500      CL =  1.3675
      Cm = -0.1387     CD =  0.01205   =>   CDf =  0.00517    CDp =  0.00688

 Side 1  free  transition at x/c =  0.1730   36
 Side 2  free  transition at x/c =  0.9815   69

  13   rms: 0.1621E+01   max: -.3260E+02   C at   69  2   RLX: 0.015
       a =  7.500      CL =  1.3675
      Cm = -0.1387     CD =  0.01205   =>   CDf =  0.00516    CDp =  0.00689

 Side 1  free  transition at x/c =  0.1730   36
 Side 2  free  transition at x/c =  0.9899   69

  14   rms: 0.2827E+01   max: -.5548E+02   C at   69  2   RLX: 0.009
       a =  7.500      CL =  1.3675
      Cm = -0.1387     CD =  0.01205   =>   CDf =  0.00516    CDp =  0.00688

 Side 1  free  transition at x/c =  0.1730   36
 Side 2  free  transition at x/c =  0.9961   70

  15   rms: 0.1541E+02   max: 0.4180E+03   C at   70  2   RLX: 0.004
       a =  7.500      CL =  1.3680
      Cm = -0.1388     CD =  0.01205   =>   CDf =  0.00516    CDp =  0.00690

 Side 1  free  transition at x/c =  0.1729   36
 Side 2  free  transition at x/c =  0.9888   69

  16   rms: 0.2506E+01   max: -.4934E+02   C at   69  2   RLX: 0.010
       a =  7.500      CL =  1.3680
      Cm = -0.1388     CD =  0.01205   =>   CDf =  0.00516    CDp =  0.00689

 Side 1  free  transition at x/c =  0.1729   36
 Side 2  free  transition at x/c =  0.9956   70

  17   rms: 0.1228E+02   max: 0.3331E+03   C at   70  2   RLX: 0.005
       a =  7.500      CL =  1.3686
      Cm = -0.1389     CD =  0.01206   =>   CDf =  0.00516    CDp =  0.00690

 Side 1  free  transition at x/c =  0.1728   36
 Side 2  free  transition at x/c =  0.9881   69

  18   rms: 0.2274E+01   max: -.4488E+02   C at   69  2   RLX: 0.011
       a =  7.500      CL =  1.3685
      Cm = -0.1389     CD =  0.01206   =>   CDf =  0.00516    CDp =  0.00689

 Side 1  free  transition at x/c =  0.1727   36
 Side 2  free  transition at x/c =  0.9953   70

  19   rms: 0.1122E+02   max: 0.3043E+03   C at   70  2   RLX: 0.005
       a =  7.500      CL =  1.3691
      Cm = -0.1390     CD =  0.01207   =>   CDf =  0.00516    CDp =  0.00690

 Side 1  free  transition at x/c =  0.1726   36
 Side 2  free  transition at x/c =  0.9878   69

  20   rms: 0.2123E+01   max: -.4196E+02   C at   69  2   RLX: 0.012
       a =  7.500      CL =  1.3691
      Cm = -0.1390     CD =  0.01206   =>   CDf =  0.00517    CDp =  0.00690

 Side 1  free  transition at x/c =  0.1726   36
 Side 2  free  transition at x/c =  0.9954   70

  21   rms: 0.1222E+02   max: 0.3315E+03   C at   70  2   RLX: 0.005
       a =  7.500      CL =  1.3697
      Cm = -0.1391     CD =  0.01207   =>   CDf =  0.00516    CDp =  0.00691

 Side 1  free  transition at x/c =  0.1725   36
 Side 2  free  transition at x/c =  0.9881   69

  22   rms: 0.2055E+01   max: -.4062E+02   C at   69  2   RLX: 0.012
       a =  7.500      CL =  1.3697
      Cm = -0.1391     CD =  0.01207   =>   CDf =  0.00517    CDp =  0.00690

 Side 1  free  transition at x/c =  0.1724   36
 Side 2  free  transition at x/c =  0.9958   70

  23   rms: 0.1839E+02   max: 0.4989E+03   C at   70  2   RLX: 0.003
       a =  7.500      CL =  1.3702
      Cm = -0.1392     CD =  0.01207   =>   CDf =  0.00516    CDp =  0.00691

 Side 1  free  transition at x/c =  0.1723   36
 Side 2  free  transition at x/c =  0.9889   69

  24   rms: 0.2065E+01   max: -.4075E+02   C at   69  2   RLX: 0.012
       a =  7.500      CL =  1.3702
      Cm = -0.1392     CD =  0.01207   =>   CDf =  0.00517    CDp =  0.00690

 Side 1  free  transition at x/c =  0.1723   36
 Side 2  free  transition at x/c =  0.9966   70

  25   rms: 0.2119E+03   max: 0.5748E+04   C at   70  2   RLX: 0.000
       a =  7.500      CL =  1.3705
      Cm = -0.1392     CD =  0.01207   =>   CDf =  0.00516    CDp =  0.00691

 Side 1  free  transition at x/c =  0.1722   36
 Side 2  free  transition at x/c =  0.9902   69

  26   rms: 0.2149E+01   max: -.4230E+02   C at   69  2   RLX: 0.012
       a =  7.500      CL =  1.3705
      Cm = -0.1392     CD =  0.01207   =>   CDf =  0.00517    CDp =  0.00691

 Side 1  free  transition at x/c =  0.1722   36
 Side 2  free  transition at x/c =  0.9978   70

  27   rms: 0.1444E+02   max: -.3917E+03   C at   70  2   RLX: 0.001
       a =  7.500      CL =  1.3704
      Cm = -0.1392     CD =  0.01207   =>   CDf =  0.00516    CDp =  0.00690

 Side 1  free  transition at x/c =  0.1722   36
 Side 2  free  transition at x/c =  0.9995   70

  28   rms: 0.6014E+01   max: -.1632E+03   C at   70  2   RLX: 0.003
       a =  7.500      CL =  1.3704
      Cm = -0.1392     CD =  0.01207   =>   CDf =  0.00516    CDp =  0.00690

 Side 1  free  transition at x/c =  0.1722   36
 Side 2 forced transition at x/c =  1.0000   70

  29   rms: 0.1570E-01   max: 0.2304E+00   C at   36  1
       a =  7.500      CL =  1.3729
      Cm = -0.1379     CD =  0.01217   =>   CDf =  0.00516    CDp =  0.00701

 Side 1  free  transition at x/c =  0.1685   36
 Side 2 forced transition at x/c =  1.0000   70

  30   rms: 0.1191E-02   max: -.2304E-01   C at   36  1
       a =  7.500      CL =  1.3725
      Cm = -0.1378     CD =  0.01218   =>   CDf =  0.00518    CDp =  0.00701

 Side 1  free  transition at x/c =  0.1689   36
 Side 2 forced transition at x/c =  1.0000   70

  31   rms: 0.2066E-04   max: -.2212E-03   C at   36  1
       a =  7.500      CL =  1.3724
      Cm = -0.1378     CD =  0.01218   =>   CDf =  0.00518    CDp =  0.00701
 plradd ia,ip,cpol           50          91  1.98899992E-02

 Point added to stored polar  1
 Point written to save file  aux_files\tp1e83e44a_713b_4928_a5ae_61792a422a05
 Dump file unspecified or not available

.OPERva   c>   Calculating wake trajectory ...
 Calculating source influence matrix ...

 Solving BL system ...

 Side 1  free  transition at x/c =  0.1689   36
 Side 2 forced transition at x/c =  1.0000   70

   1   rms: 0.5579E-01   max: 0.8907E+00   C at   36  1
       a =  7.750      CL =  1.3900
      Cm = -0.1362     CD =  0.01267   =>   CDf =  0.00506    CDp =  0.00761

 Side 1  free  transition at x/c =  0.1535   36
 Side 2 forced transition at x/c =  1.0000   69

   2   rms: 0.4386E-02   max: -.5498E-01   C at   36  1
       a =  7.750      CL =  1.3893
      Cm = -0.1361     CD =  0.01268   =>   CDf =  0.00525    CDp =  0.00743

 Side 1  free  transition at x/c =  0.1546   36
 Side 2 forced transition at x/c =  1.0000   69

   3   rms: 0.3143E-03   max: -.3429E-02   D at    4  1
       a =  7.750      CL =  1.3892
      Cm = -0.1361     CD =  0.01268   =>   CDf =  0.00524    CDp =  0.00744

 Side 1  free  transition at x/c =  0.1546   36
 Side 2 forced transition at x/c =  1.0000   69

   4   rms: 0.7070E-06   max: 0.4395E-05   C at   36  1
       a =  7.750      CL =  1.3892
      Cm = -0.1361     CD =  0.01269   =>   CDf =  0.00524    CDp =  0.00744
 plradd ia,ip,cpol           51          92  1.56900007E-02

 Point added to stored polar  1
 Point written to save file  aux_files\tp1e83e44a_713b_4928_a5ae_61792a422a05
 Dump file unspecified or not available

.OPERva   c>   Calculating wake trajectory ...
 Calculating source influence matrix ...

 Solving BL system ...

 Side 1  free  transition at x/c =  0.1546   36
 Side 2 forced transition at x/c =  1.0000   69

   1   rms: 0.5230E-01   max: 0.8160E+00   C at   36  1
       a =  8.000      CL =  1.4068
      Cm = -0.1345     CD =  0.01319   =>   CDf =  0.00524    CDp =  0.00794

 Side 1  free  transition at x/c =  0.1390   35
 Side 2 forced transition at x/c =  1.0000   69

   2   rms: 0.3938E-02   max: -.6714E-01   C at   35  1
       a =  8.000      CL =  1.4060
      Cm = -0.1344     CD =  0.01321   =>   CDf =  0.00533    CDp =  0.00788

 Side 1  free  transition at x/c =  0.1404   35
 Side 2 forced transition at x/c =  1.0000   69

   3   rms: 0.5578E-04   max: -.8944E-03   C at   35  1
       a =  8.000      CL =  1.4059
      Cm = -0.1344     CD =  0.01321   =>   CDf =  0.00532    CDp =  0.00789
 plradd ia,ip,cpol           52          92  1.56900007E-02

 Point added to stored polar  1
 Point written to save file  aux_files\tp1e83e44a_713b_4928_a5ae_61792a422a05
 Dump file unspecified or not available

.OPERva   c>   Calculating wake trajectory ...
 Calculating source influence matrix ...

 Solving BL system ...

 Side 1  free  transition at x/c =  0.1404   35
 Side 2 forced transition at x/c =  1.0000   69

   1   rms: 0.5660E-01   max: 0.8986E+00   C at   35  1
       a =  8.250      CL =  1.4223
      Cm = -0.1326     CD =  0.01378   =>   CDf =  0.00532    CDp =  0.00847

 Side 1  free  transition at x/c =  0.1234   34
 Side 2 forced transition at x/c =  1.0000   69

   2   rms: 0.5231E-02   max: 0.9145E-01   D at   34  1
       a =  8.250      CL =  1.4211
      Cm = -0.1324     CD =  0.01380   =>   CDf =  0.00542    CDp =  0.00838

 Side 1  free  transition at x/c =  0.1252   34
 Side 2 forced transition at x/c =  1.0000   69

   3   rms: 0.1482E-03   max: 0.1771E-02   C at   34  1
       a =  8.250      CL =  1.4211
      Cm = -0.1324     CD =  0.01380   =>   CDf =  0.00540    CDp =  0.00840

 Side 1  free  transition at x/c =  0.1251   34
 Side 2 forced transition at x/c =  1.0000   69

   4   rms: 0.1789E-05   max: -.1576E-04   C at   34  1
       a =  8.250      CL =  1.4211
      Cm = -0.1324     CD =  0.01380   =>   CDf =  0.00540    CDp =  0.00840
 plradd ia,ip,cpol           53          92  1.56900007E-02

 Point added to stored polar  1
 Point written to save file  aux_files\tp1e83e44a_713b_4928_a5ae_61792a422a05
 Dump file unspecified or not available

.OPERva   c>   Calculating wake trajectory ...
 Calculating source influence matrix ...

 Solving BL system ...

 Side 1  free  transition at x/c =  0.1251   34
 Side 2 forced transition at x/c =  1.0000   69

   1   rms: 0.5445E-01   max: 0.7196E+00   C at   34  1
       a =  8.500      CL =  1.4350
      Cm = -0.1303     CD =  0.01448   =>   CDf =  0.00540    CDp =  0.00908

 Side 1  free  transition at x/c =  0.1132   33
 Side 2 forced transition at x/c =  1.0000   69

   2   rms: 0.3392E-02   max: 0.1244E-01   U at   34  1
       a =  8.500      CL =  1.4368
      Cm = -0.1306     CD =  0.01437   =>   CDf =  0.00546    CDp =  0.00891

 Side 1  free  transition at x/c =  0.1132   33
 Side 2 forced transition at x/c =  1.0000   69

   3   rms: 0.2304E-04   max: 0.4276E-03   C at   33  1
       a =  8.500      CL =  1.4368
      Cm = -0.1306     CD =  0.01437   =>   CDf =  0.00546    CDp =  0.00891
 plradd ia,ip,cpol           54          92  1.56900007E-02

 Point added to stored polar  1
 Point written to save file  aux_files\tp1e83e44a_713b_4928_a5ae_61792a422a05
 Dump file unspecified or not available

.OPERva   c>   Calculating wake trajectory ...
 Calculating source influence matrix ...

 Solving BL system ...

 Side 1  free  transition at x/c =  0.1132   33
 Side 2 forced transition at x/c =  1.0000   69

   1   rms: 0.4478E-01   max: 0.5527E+00   C at   33  1
       a =  8.750      CL =  1.4538
      Cm = -0.1290     CD =  0.01491   =>   CDf =  0.00533    CDp =  0.00958

 Side 1  free  transition at x/c =  0.1037   33
 Side 2 forced transition at x/c =  1.0000   68

   2   rms: 0.2497E-02   max: -.3477E-01   D at    3  1
       a =  8.750      CL =  1.4534
      Cm = -0.1290     CD =  0.01491   =>   CDf =  0.00551    CDp =  0.00940

 Side 1  free  transition at x/c =  0.1036   33
 Side 2 forced transition at x/c =  1.0000   68

   3   rms: 0.2843E-03   max: -.3186E-02   D at    4  1
       a =  8.750      CL =  1.4534
      Cm = -0.1290     CD =  0.01491   =>   CDf =  0.00551    CDp =  0.00940

 Side 1  free  transition at x/c =  0.1036   33
 Side 2 forced transition at x/c =  1.0000   68

   4   rms: 0.7390E-06   max: -.5592E-05   C at   68  2
       a =  8.750      CL =  1.4534
      Cm = -0.1290     CD =  0.01491   =>   CDf =  0.00551    CDp =  0.00940
 plradd ia,ip,cpol           55          93  1.56900007E-02

 Point added to stored polar  1
 Point written to save file  aux_files\tp1e83e44a_713b_4928_a5ae_61792a422a05
 Dump file unspecified or not available

.OPERva   c>   Calculating wake trajectory ...
 Calculating source influence matrix ...

 Solving BL system ...

 Side 1  free  transition at x/c =  0.1036   33
 Side 2 forced transition at x/c =  1.0000   68

   1   rms: 0.3881E-01   max: 0.4199E+00   C at   33  1
       a =  9.000      CL =  1.4727
      Cm = -0.1278     CD =  0.01535   =>   CDf =  0.00551    CDp =  0.00984

 Side 1  free  transition at x/c =  0.0927   33
 Side 2 forced transition at x/c =  1.0000   68

   2   rms: 0.5183E-02   max: 0.6319E-01   D at   33  1
       a =  9.000      CL =  1.4688
      Cm = -0.1272     CD =  0.01551   =>   CDf =  0.00558    CDp =  0.00994

 Side 1  free  transition at x/c =  0.0951   33
 Side 2 forced transition at x/c =  1.0000   68

   3   rms: 0.7593E-03   max: -.1427E-01   D at   33  1
       a =  9.000      CL =  1.4690
      Cm = -0.1272     CD =  0.01550   =>   CDf =  0.00555    CDp =  0.00995

 Side 1  free  transition at x/c =  0.0948   33
 Side 2 forced transition at x/c =  1.0000   68

   4   rms: 0.1173E-04   max: -.2066E-03   D at   33  1
       a =  9.000      CL =  1.4690
      Cm = -0.1272     CD =  0.01550   =>   CDf =  0.00555    CDp =  0.00995
 plradd ia,ip,cpol           56          93  1.56900007E-02

 Point added to stored polar  1
 Point written to save file  aux_files\tp1e83e44a_713b_4928_a5ae_61792a422a05
 Dump file unspecified or not available

.OPERva   c>   Calculating wake trajectory ...
 Calculating source influence matrix ...

 Solving BL system ...

 Side 1  free  transition at x/c =  0.0948   33
 Side 2 forced transition at x/c =  1.0000   68

   1   rms: 0.4372E-01   max: -.4045E+00   D at   33  1
       a =  9.250      CL =  1.4827
      Cm = -0.1252     CD =  0.01624   =>   CDf =  0.00555    CDp =  0.01068

 Side 1  free  transition at x/c =  0.0881   32
 Side 2 forced transition at x/c =  1.0000   68

   2   rms: 0.4586E-02   max: -.1541E-01   D at   88  1
       a =  9.250      CL =  1.4860
      Cm = -0.1257     CD =  0.01603   =>   CDf =  0.00557    CDp =  0.01046

 Side 1  free  transition at x/c =  0.0880   32
 Side 2 forced transition at x/c =  1.0000   68

   3   rms: 0.5047E-04   max: 0.5628E-03   C at   32  1
       a =  9.250      CL =  1.4860
      Cm = -0.1257     CD =  0.01603   =>   CDf =  0.00558    CDp =  0.01045
 plradd ia,ip,cpol           57          93  1.56900007E-02

 Point added to stored polar  1
 Point written to save file  aux_files\tp1e83e44a_713b_4928_a5ae_61792a422a05
 Dump file unspecified or not available

.OPERva   c>   Calculating wake trajectory ...
 Calculating source influence matrix ...

 Solving BL system ...

 Side 1  free  transition at x/c =  0.0880   32
 Side 2 forced transition at x/c =  1.0000   68

   1   rms: 0.3909E-01   max: 0.3858E+00   C at   32  1
       a =  9.500      CL =  1.5031
      Cm = -0.1243     CD =  0.01659   =>   CDf =  0.00558    CDp =  0.01101

 Side 1  free  transition at x/c =  0.0794   31
 Side 2 forced transition at x/c =  1.0000   68

   2   rms: 0.2353E-02   max: 0.1641E-01   D at   87  1
       a =  9.500      CL =  1.5010
      Cm = -0.1239     CD =  0.01667   =>   CDf =  0.00563    CDp =  0.01104

 Side 1  free  transition at x/c =  0.0795   31
 Side 2 forced transition at x/c =  1.0000   68

   3   rms: 0.1513E-03   max: 0.1884E-02   D at   87  1
       a =  9.500      CL =  1.5009
      Cm = -0.1239     CD =  0.01667   =>   CDf =  0.00562    CDp =  0.01105

 Side 1  free  transition at x/c =  0.0796   31
 Side 2 forced transition at x/c =  1.0000   68

   4   rms: 0.3342E-05   max: 0.2338E-04   D at   87  1
       a =  9.500      CL =  1.5009
      Cm = -0.1239     CD =  0.01667   =>   CDf =  0.00562    CDp =  0.01105
 plradd ia,ip,cpol           58          93  1.56900007E-02

 Point added to stored polar  1
 Point written to save file  aux_files\tp1e83e44a_713b_4928_a5ae_61792a422a05
 Dump file unspecified or not available

.OPERva   c>   Calculating wake trajectory ...
 Calculating source influence matrix ...

 Solving BL system ...

 Side 1  free  transition at x/c =  0.0796   31
 Side 2 forced transition at x/c =  1.0000   68

   1   rms: 0.3427E-01   max: -.1114E+00   D at   31  1
       a =  9.750      CL =  1.5194
      Cm = -0.1227     CD =  0.01716   =>   CDf =  0.00547    CDp =  0.01168

 Side 1  free  transition at x/c =  0.0740   32
 Side 2 forced transition at x/c =  1.0000   67

   2   rms: 0.3684E-02   max: 0.4200E-01   D at   32  1
       a =  9.750      CL =  1.5174
      Cm = -0.1224     CD =  0.01724   =>   CDf =  0.00564    CDp =  0.01160

 Side 1  free  transition at x/c =  0.0749   32
 Side 2 forced transition at x/c =  1.0000   67

   3   rms: 0.3518E-03   max: -.4028E-02   D at    4  1
       a =  9.750      CL =  1.5174
      Cm = -0.1224     CD =  0.01724   =>   CDf =  0.00563    CDp =  0.01161

 Side 1  free  transition at x/c =  0.0748   32
 Side 2 forced transition at x/c =  1.0000   67

   4   rms: 0.8794E-06   max: -.8026E-05   C at   32  1
       a =  9.750      CL =  1.5174
      Cm = -0.1224     CD =  0.01724   =>   CDf =  0.00563    CDp =  0.01161
 plradd ia,ip,cpol           59          94  7.99999980E-05

 Point added to stored polar  1
 Point written to save file  aux_files\tp1e83e44a_713b_4928_a5ae_61792a422a05
 Dump file unspecified or not available

.OPERva   c>   Calculating wake trajectory ...
 Calculating source influence matrix ...

 Solving BL system ...

 Side 1  free  transition at x/c =  0.0748   32
 Side 2 forced transition at x/c =  1.0000   67

   1   rms: 0.3966E-01   max: 0.3311E+00   C at   32  1
       a = 10.000      CL =  1.5326
      Cm = -0.1207     CD =  0.01792   =>   CDf =  0.00563    CDp =  0.01230

 Side 1  free  transition at x/c =  0.0678   31
 Side 2 forced transition at x/c =  1.0000   67

   2   rms: 0.1066E-02   max: 0.1493E-01   C at   31  1
       a = 10.000      CL =  1.5320
      Cm = -0.1206     CD =  0.01792   =>   CDf =  0.00567    CDp =  0.01226

 Side 1  free  transition at x/c =  0.0677   31
 Side 2 forced transition at x/c =  1.0000   67

   3   rms: 0.4267E-04   max: 0.4565E-03   D at   87  1
       a = 10.000      CL =  1.5320
      Cm = -0.1206     CD =  0.01792   =>   CDf =  0.00567    CDp =  0.01226
 plradd ia,ip,cpol           60          94  7.99999980E-05

 Point added to stored polar  1
 Point written to save file  aux_files\tp1e83e44a_713b_4928_a5ae_61792a422a05
 Dump file unspecified or not available

.OPERva   c>  
 Polar accumulation disabled

.OPERv   c>  
 XFOIL   c>  