
 ===================================================
  XFOIL Version 6.99
  Copyright (C) 2000   Mark Drela, Harold Youngren

  This software comes with ABSOLUTELY NO WARRANTY,
    subject to the GNU General Public License.

  Caveat computor
 ===================================================

 File  xfoil.def  not found

   QUIT    Exit program

  .OPER    Direct operating point(s)
  .MDES    Complex mapping design routine
  .QDES    Surface speed design routine
  .GDES    Geometry design routine

   SAVE f  Write airfoil to labeled coordinate file
   PSAV f  Write airfoil to plain coordinate file
   ISAV f  Write airfoil to ISES coordinate file
   MSAV f  Write airfoil to MSES coordinate file
   REVE    Reverse written-airfoil node ordering

   LOAD f  Read buffer airfoil from coordinate file
   NACA i  Set NACA 4,5-digit airfoil and buffer airfoil
   INTE    Set buffer airfoil by interpolating two airfoils
   NORM    Buffer airfoil normalization toggle
   XYCM rr Change CM reference location, currently  0.25000 0.00000

   BEND    Display structural properties of current airfoil

   PCOP    Set current-airfoil panel nodes directly from buffer airfoil points
   PANE    Set current-airfoil panel nodes ( 160 ) based on curvature
  .PPAR    Show/change paneling

  .PLOP    Plotting options

   WDEF f  Write  current-settings file
   RDEF f  Reread current-settings file
   NAME s  Specify new airfoil name
   NINC    Increment name version number

   Z       Zoom    | (available in all menus)
   U       Unzoom  | 

 XFOIL   c>   ...............................................

  G raphics-enable flag:        T
  S ize of plot object          10.00"
  A spect ratio of plot object   0.5500
  P age dimensions              11.00 x  8.50"
  M argins from page edges       0.00",  0.00"
  F ont size (relative)          0.0150
  W indow/screen size fraction   0.8000
  B lowup input method:        Cursor    
  O rientation of plot:        Landscape 
  C olor PostScript output?     F

      Option, Value   (or <Return>)    c>   ...............................................

  G raphics-enable flag:        F
  S ize of plot object          10.00"
  A spect ratio of plot object   0.5500
  P age dimensions              11.00 x  8.50"
  M argins from page edges       0.00",  0.00"
  F ont size (relative)          0.0150
  W indow/screen size fraction   0.8000
  B lowup input method:        Cursor    
  O rientation of plot:        Landscape 
  C olor PostScript output?     F

      Option, Value   (or <Return>)    c>  
 XFOIL   c>  
Enter filename   s>  
 Labeled airfoil file.  Name:  tped077d64_4c90_4a59_af4e_69426b7f19c2          

 Number of input coordinate points: 160
 Counterclockwise ordering
 Max thickness =     0.156612  at x =   0.338
 Max camber    =     0.045540  at x =   0.524

  LE  x,y  =  -0.00000   0.00005  |   Chord =   1.00001
  TE  x,y  =   1.00001   0.00000  |

 Current airfoil nodes set from buffer airfoil nodes ( 160 )

 XFOIL   c>  
.OPERi   c>   Current iteration limit:          10

Enter new iteration limit   i>  
.OPERi   c>  
Enter Reynolds number   r>  
 M  =    0.0000
 Re =   5200000

.OPERv   c>  
 Xtr/c     =  1.0000    top    side
 Xtr/c     =  1.0000    bottom side
 Ncrit     =    9.00   ( 0.070 % turb. level )
 Vacc      =  0.0100

 Klag  =  5.6000     Uxwt  =    1.00
 A     =  6.7000     B     =  0.7500       KCt = 0.01485
 CtiniK=  1.8000     CtiniX=  3.3000

..VPAR   c>   Trips are entered in x/c (with xtr>0)
                   or s/c (with xtr<0)

Enter top    side Xtrip/c   r>  
Enter bottom side Xtrip/c   r>  
..VPAR   c>  
.OPERv   c>  
 Polar  1 newly created for accumulation
 Airfoil archived with polar: tped077d64_4c90_4a59_af4e_69426b7f19c2          

Enter  polar save filename  OR  <return> for no file   s>  
 New polar save file available

Enter  polar dump filename  OR  <return> for no file   s>  
 Polar dump file will NOT be written

 Polar accumulation enabled

.OPERva   c>   Calculating unit vorticity distributions ...
 Calculating wake trajectory ...
 Calculating source influence matrix ...

 Solving BL system ...

 Initializing BL ...
    side            1  ...
 MRCHUE: Inverse mode at  76     Hk =   2.500
    side            2  ...
 MRCHUE: Inverse mode at  15     Hk =   6.175
 MRCHUE: Inverse mode at  16     Hk =   6.826
 MRCHUE: Inverse mode at  17     Hk =   2.500

 Side 1  free  transition at x/c =  0.7259   57
 Side 2  free  transition at x/c =  0.0088   16

   1   rms: 0.1400E+00   max: -.9522E+00   D at   86  2   RLX: 0.525
       a = -5.000      CL =  0.0926
      Cm = -0.1514     CD =  0.00596   =>   CDf =  0.00464    CDp =  0.00132

 Side 1  free  transition at x/c =  0.7343   57
 Side 2  free  transition at x/c =  0.0093   17

   2   rms: 0.6503E-01   max: -.6593E+00   D at   86  2   RLX: 0.758
       a = -5.000      CL =  0.0981
      Cm = -0.1517     CD =  0.00618   =>   CDf =  0.00467    CDp =  0.00151

 Side 1  free  transition at x/c =  0.7403   58
 Side 2  free  transition at x/c =  0.0124   18

   3   rms: 0.3934E-01   max: -.2983E+00   D at   86  2
       a = -5.000      CL =  0.1340
      Cm = -0.1597     CD =  0.00629   =>   CDf =  0.00467    CDp =  0.00163

 Side 1  free  transition at x/c =  0.7452   58
 Side 2  free  transition at x/c =  0.0127   18

   4   rms: 0.4189E-02   max: -.4985E-01   D at   76  1
       a = -5.000      CL =  0.1363
      Cm = -0.1602     CD =  0.00632   =>   CDf =  0.00463    CDp =  0.00169

 Side 1  free  transition at x/c =  0.7453   58
 Side 2  free  transition at x/c =  0.0127   18

   5   rms: 0.1213E-03   max: -.1225E-02   D at   76  1
       a = -5.000      CL =  0.1363
      Cm = -0.1602     CD =  0.00633   =>   CDf =  0.00463    CDp =  0.00170

 Side 1  free  transition at x/c =  0.7453   58
 Side 2  free  transition at x/c =  0.0127   18

   6   rms: 0.5741E-06   max: -.9951E-05   C at   58  1
       a = -5.000      CL =  0.1363
      Cm = -0.1602     CD =  0.00633   =>   CDf =  0.00463    CDp =  0.00170
 plradd ia,ip,cpol            1          75  1.53999997E-03

 Point added to stored polar  1
 Point written to save file  aux_files\tp2a44e57a_bfd7_4d1f_a97c_d08ea460100e
 Dump file unspecified or not available

.OPERva   c>   Calculating wake trajectory ...
 Calculating source influence matrix ...

 Solving BL system ...

 Side 1  free  transition at x/c =  0.7453   58
 Side 2  free  transition at x/c =  0.0127   18

   1   rms: 0.5245E-01   max: 0.5551E+00   D at   18  2
       a = -4.750      CL =  0.1652
      Cm = -0.1606     CD =  0.00623   =>   CDf =  0.00463    CDp =  0.00159

 Side 1  free  transition at x/c =  0.7364   58
 Side 2  free  transition at x/c =  0.0162   19

   2   rms: 0.7580E-02   max: 0.1039E+00   D at   19  2
       a = -4.750      CL =  0.1648
      Cm = -0.1605     CD =  0.00625   =>   CDf =  0.00464    CDp =  0.00160

 Side 1  free  transition at x/c =  0.7371   58
 Side 2  free  transition at x/c =  0.0171   19

   3   rms: 0.1947E-02   max: 0.3782E-01   C at   19  2
       a = -4.750      CL =  0.1648
      Cm = -0.1605     CD =  0.00625   =>   CDf =  0.00464    CDp =  0.00161

 Side 1  free  transition at x/c =  0.7371   58
 Side 2  free  transition at x/c =  0.0169   19

   4   rms: 0.6953E-05   max: 0.1146E-03   C at   19  2
       a = -4.750      CL =  0.1648
      Cm = -0.1605     CD =  0.00625   =>   CDf =  0.00464    CDp =  0.00161
 plradd ia,ip,cpol            2          75  1.53999997E-03

 Point added to stored polar  1
 Point written to save file  aux_files\tp2a44e57a_bfd7_4d1f_a97c_d08ea460100e
 Dump file unspecified or not available

.OPERva   c>   Calculating wake trajectory ...
 Calculating source influence matrix ...

 Solving BL system ...

 Side 1  free  transition at x/c =  0.7371   58
 Side 2  free  transition at x/c =  0.0169   19

   1   rms: 0.7151E-01   max: -.1081E+01   C at   19  2   RLX: 0.463
       a = -4.500      CL =  0.1780
      Cm = -0.1606     CD =  0.00620   =>   CDf =  0.00471    CDp =  0.00149

 Side 1  free  transition at x/c =  0.7343   58
 Side 2  free  transition at x/c =  0.0186   19

   2   rms: 0.5425E-01   max: -.7894E+00   T at    2  1   RLX: 0.633
       a = -4.500      CL =  0.1883
      Cm = -0.1608     CD =  0.00617   =>   CDf =  0.00464    CDp =  0.00154

 Side 1  free  transition at x/c =  0.7325   58
 Side 2  free  transition at x/c =  0.0228   19

   3   rms: 0.1454E-01   max: -.3019E+00   C at   19  2
       a = -4.500      CL =  0.1941
      Cm = -0.1609     CD =  0.00614   =>   CDf =  0.00462    CDp =  0.00152

 Side 1  free  transition at x/c =  0.7314   58
 Side 2  free  transition at x/c =  0.0251   20

   4   rms: 0.3500E-02   max: 0.5296E-01   D at   20  2
       a = -4.500      CL =  0.1940
      Cm = -0.1609     CD =  0.00612   =>   CDf =  0.00461    CDp =  0.00151

 Side 1  free  transition at x/c =  0.7314   58
 Side 2  free  transition at x/c =  0.0257   20

   5   rms: 0.1213E-03   max: 0.2013E-02   C at   20  2
       a = -4.500      CL =  0.1940
      Cm = -0.1609     CD =  0.00612   =>   CDf =  0.00461    CDp =  0.00151

 Side 1  free  transition at x/c =  0.7314   58
 Side 2  free  transition at x/c =  0.0257   20

   6   rms: 0.8134E-06   max: -.5944E-05   C at   20  2
       a = -4.500      CL =  0.1940
      Cm = -0.1609     CD =  0.00612   =>   CDf =  0.00461    CDp =  0.00151
 plradd ia,ip,cpol            3          76  1.53999997E-03

 Point added to stored polar  1
 Point written to save file  aux_files\tp2a44e57a_bfd7_4d1f_a97c_d08ea460100e
 Dump file unspecified or not available

.OPERva   c>   Calculating wake trajectory ...
 Calculating source influence matrix ...

 Solving BL system ...

 Side 1  free  transition at x/c =  0.7314   58
 Side 2  free  transition at x/c =  0.0257   20

   1   rms: 0.9007E-01   max: -.1351E+01   C at   20  2   RLX: 0.370
       a = -4.250      CL =  0.2048
      Cm = -0.1611     CD =  0.00606   =>   CDf =  0.00461    CDp =  0.00145

 Side 1  free  transition at x/c =  0.7288   58
 Side 2  free  transition at x/c =  0.0286   20

   2   rms: 0.4423E-01   max: -.8971E+00   C at   20  2   RLX: 0.557
       a = -4.250      CL =  0.2150
      Cm = -0.1612     CD =  0.00606   =>   CDf =  0.00460    CDp =  0.00146

 Side 1  free  transition at x/c =  0.7261   58
 Side 2  free  transition at x/c =  0.0346   21

   3   rms: 0.1872E-01   max: -.3669E+00   C at   21  2
       a = -4.250      CL =  0.2228
      Cm = -0.1613     CD =  0.00602   =>   CDf =  0.00459    CDp =  0.00143

 Side 1  free  transition at x/c =  0.7240   58
 Side 2  free  transition at x/c =  0.0376   22

   4   rms: 0.7689E-02   max: 0.1223E+00   D at   22  2
       a = -4.250      CL =  0.2228
      Cm = -0.1613     CD =  0.00600   =>   CDf =  0.00459    CDp =  0.00141

 Side 1  free  transition at x/c =  0.7240   58
 Side 2  free  transition at x/c =  0.0403   22

   5   rms: 0.1348E-02   max: 0.2190E-01   C at   22  2
       a = -4.250      CL =  0.2228
      Cm = -0.1613     CD =  0.00600   =>   CDf =  0.00457    CDp =  0.00142

 Side 1  free  transition at x/c =  0.7240   58
 Side 2  free  transition at x/c =  0.0401   22

   6   rms: 0.5485E-05   max: 0.9373E-04   C at   22  2
       a = -4.250      CL =  0.2228
      Cm = -0.1613     CD =  0.00600   =>   CDf =  0.00458    CDp =  0.00142
 plradd ia,ip,cpol            4          76  1.53999997E-03

 Point added to stored polar  1
 Point written to save file  aux_files\tp2a44e57a_bfd7_4d1f_a97c_d08ea460100e
 Dump file unspecified or not available

.OPERva   c>   Calculating wake trajectory ...
 Calculating source influence matrix ...

 Solving BL system ...

 Side 1  free  transition at x/c =  0.7240   58
 Side 2  free  transition at x/c =  0.0400   22

   1   rms: 0.8912E-01   max: -.1445E+01   C at   22  2   RLX: 0.346
       a = -4.000      CL =  0.2326
      Cm = -0.1614     CD =  0.00595   =>   CDf =  0.00458    CDp =  0.00138

 Side 1  free  transition at x/c =  0.7212   58
 Side 2  free  transition at x/c =  0.0436   22

   2   rms: 0.5530E-01   max: -.1255E+01   C at   22  2   RLX: 0.398
       a = -4.000      CL =  0.2402
      Cm = -0.1615     CD =  0.00596   =>   CDf =  0.00457    CDp =  0.00139

 Side 1  free  transition at x/c =  0.7196   57
 Side 2  free  transition at x/c =  0.0517   23

   3   rms: 0.5174E-01   max: -.1226E+01   C at   23  2   RLX: 0.408
       a = -4.000      CL =  0.2448
      Cm = -0.1616     CD =  0.00589   =>   CDf =  0.00455    CDp =  0.00134

 Side 1  free  transition at x/c =  0.7189   57
 Side 2  free  transition at x/c =  0.0541   24

   4   rms: 0.1540E-01   max: 0.1447E+00   D at   24  2
       a = -4.000      CL =  0.2518
      Cm = -0.1617     CD =  0.00586   =>   CDf =  0.00454    CDp =  0.00132

 Side 1  free  transition at x/c =  0.7176   57
 Side 2  free  transition at x/c =  0.0640   24

   5   rms: 0.4208E-02   max: -.1003E+00   C at   24  2
       a = -4.000      CL =  0.2517
      Cm = -0.1617     CD =  0.00583   =>   CDf =  0.00451    CDp =  0.00132

 Side 1  free  transition at x/c =  0.7176   57
 Side 2  free  transition at x/c =  0.0638   24

   6   rms: 0.7058E-04   max: -.1851E-02   C at   24  2
       a = -4.000      CL =  0.2517
      Cm = -0.1617     CD =  0.00583   =>   CDf =  0.00451    CDp =  0.00132
 plradd ia,ip,cpol            5          76  1.53999997E-03

 Point added to stored polar  1
 Point written to save file  aux_files\tp2a44e57a_bfd7_4d1f_a97c_d08ea460100e
 Dump file unspecified or not available

.OPERva   c>   Calculating wake trajectory ...
 Calculating source influence matrix ...

 Solving BL system ...

 Side 1  free  transition at x/c =  0.7176   57
 Side 2  free  transition at x/c =  0.0638   24

   1   rms: 0.1623E+00   max: -.4100E+01   C at   24  2   RLX: 0.122
       a = -3.750      CL =  0.2553
      Cm = -0.1618     CD =  0.00582   =>   CDf =  0.00451    CDp =  0.00131

 Side 1  free  transition at x/c =  0.7168   57
 Side 2  free  transition at x/c =  0.0674   25

   2   rms: 0.8791E-01   max: 0.1039E+01   D at   25  2   RLX: 0.839
       a = -3.750      CL =  0.2767
      Cm = -0.1622     CD =  0.00563   =>   CDf =  0.00452    CDp =  0.00111

 Side 1  free  transition at x/c =  0.7108   58
 Side 2  free  transition at x/c =  0.0765   24

   3   rms: 0.2420E-01   max: -.5595E+00   C at   24  2   RLX: 0.894
       a = -3.750      CL =  0.2804
      Cm = -0.1621     CD =  0.00575   =>   CDf =  0.00449    CDp =  0.00126

 Side 1  free  transition at x/c =  0.7104   58
 Side 2  free  transition at x/c =  0.1017   26

   4   rms: 0.3863E-01   max: -.9887E+00   C at   26  2   RLX: 0.506
       a = -3.750      CL =  0.2802
      Cm = -0.1622     CD =  0.00562   =>   CDf =  0.00441    CDp =  0.00121

 Side 1  free  transition at x/c =  0.7104   58
 Side 2  free  transition at x/c =  0.1036   26

   5   rms: 0.1404E-01   max: -.3666E+00   C at   26  2
       a = -3.750      CL =  0.2805
      Cm = -0.1622     CD =  0.00562   =>   CDf =  0.00440    CDp =  0.00121

 Side 1  free  transition at x/c =  0.7103   58
 Side 2  free  transition at x/c =  0.1050   27

   6   rms: 0.5040E-03   max: 0.7256E-02   D at   27  2
       a = -3.750      CL =  0.2805
      Cm = -0.1622     CD =  0.00562   =>   CDf =  0.00440    CDp =  0.00122

 Side 1  free  transition at x/c =  0.7103   58
 Side 2  free  transition at x/c =  0.1053   27

   7   rms: 0.5828E-05   max: -.1029E-03   D at   27  2
       a = -3.750      CL =  0.2805
      Cm = -0.1622     CD =  0.00562   =>   CDf =  0.00440    CDp =  0.00122
 plradd ia,ip,cpol            6          77  1.53999997E-03

 Point added to stored polar  1
 Point written to save file  aux_files\tp2a44e57a_bfd7_4d1f_a97c_d08ea460100e
 Dump file unspecified or not available

.OPERva   c>   Calculating wake trajectory ...
 Calculating source influence matrix ...

 Solving BL system ...

 Side 1  free  transition at x/c =  0.7103   58
 Side 2  free  transition at x/c =  0.1053   27

   1   rms: 0.8816E-01   max: 0.9805E+00   D at   27  2   RLX: 0.942
       a = -3.500      CL =  0.3072
      Cm = -0.1625     CD =  0.00545   =>   CDf =  0.00440    CDp =  0.00105

 Side 1  free  transition at x/c =  0.7038   57
 Side 2  free  transition at x/c =  0.1166   27

   2   rms: 0.2520E-01   max: -.4814E+00   C at   27  2
       a = -3.500      CL =  0.3094
      Cm = -0.1626     CD =  0.00555   =>   CDf =  0.00439    CDp =  0.00116

 Side 1  free  transition at x/c =  0.7032   57
 Side 2  free  transition at x/c =  0.1478   30

   3   rms: 0.1232E-01   max: 0.1724E+00   D at   30  2
       a = -3.500      CL =  0.3092
      Cm = -0.1627     CD =  0.00539   =>   CDf =  0.00429    CDp =  0.00110

 Side 1  free  transition at x/c =  0.7032   57
 Side 2  free  transition at x/c =  0.1590   30

   4   rms: 0.2228E-02   max: -.4872E-01   D at   30  2
       a = -3.500      CL =  0.3092
      Cm = -0.1627     CD =  0.00537   =>   CDf =  0.00425    CDp =  0.00112

 Side 1  free  transition at x/c =  0.7032   57
 Side 2  free  transition at x/c =  0.1581   30

   5   rms: 0.1742E-03   max: -.4277E-02   C at   30  2
       a = -3.500      CL =  0.3092
      Cm = -0.1627     CD =  0.00537   =>   CDf =  0.00425    CDp =  0.00112

 Side 1  free  transition at x/c =  0.7032   57
 Side 2  free  transition at x/c =  0.1581   30

   6   rms: 0.1046E-05   max: -.2435E-04   C at   30  2
       a = -3.500      CL =  0.3092
      Cm = -0.1627     CD =  0.00537   =>   CDf =  0.00425    CDp =  0.00112
 plradd ia,ip,cpol            7          77  1.53999997E-03

 Point added to stored polar  1
 Point written to save file  aux_files\tp2a44e57a_bfd7_4d1f_a97c_d08ea460100e
 Dump file unspecified or not available

.OPERva   c>   Calculating wake trajectory ...
 Calculating source influence matrix ...

 Solving BL system ...

 Side 1  free  transition at x/c =  0.7032   57
 Side 2  free  transition at x/c =  0.1581   30

   1   rms: 0.1998E+00   max: -.4827E+01   C at   30  2   RLX: 0.104
       a = -3.250      CL =  0.3122
      Cm = -0.1627     CD =  0.00535   =>   CDf =  0.00425    CDp =  0.00110

 Side 1  free  transition at x/c =  0.7027   57
 Side 2  free  transition at x/c =  0.1616   30

   2   rms: 0.1582E+00   max: -.4034E+01   C at   30  2   RLX: 0.124
       a = -3.250      CL =  0.3156
      Cm = -0.1628     CD =  0.00535   =>   CDf =  0.00425    CDp =  0.00110

 MRCHDU: Convergence failed at  31  side 2    Res =  0.1775E-01
 Side 1  free  transition at x/c =  0.7020   57
 Side 2  free  transition at x/c =  0.1717   31

   3   rms: 0.1672E+00   max: -.3716E+01   C at   31  2   RLX: 0.135
       a = -3.250      CL =  0.3185
      Cm = -0.1629     CD =  0.00528   =>   CDf =  0.00422    CDp =  0.00107

 Side 1  free  transition at x/c =  0.7014   57
 Side 2  free  transition at x/c =  0.1750   31

   4   rms: 0.1076E+00   max: -.2675E+01   C at   31  2   RLX: 0.187
       a = -3.250      CL =  0.3223
      Cm = -0.1629     CD =  0.00528   =>   CDf =  0.00421    CDp =  0.00108

 Side 1  free  transition at x/c =  0.7006   57
 Side 2  free  transition at x/c =  0.1797   32

   5   rms: 0.6787E-01   max: 0.8986E+00   D at   32  2
       a = -3.250      CL =  0.3382
      Cm = -0.1632     CD =  0.00512   =>   CDf =  0.00420    CDp =  0.00093

 Side 1  free  transition at x/c =  0.6965   57
 Side 2  free  transition at x/c =  0.1904   32

   6   rms: 0.1864E-01   max: -.4553E+00   C at   32  2
       a = -3.250      CL =  0.3382
      Cm = -0.1631     CD =  0.00523   =>   CDf =  0.00418    CDp =  0.00106

 Side 1  free  transition at x/c =  0.6968   57
 Side 2  free  transition at x/c =  0.2051   33

   7   rms: 0.9732E-02   max: -.2344E+00   C at   33  2
       a = -3.250      CL =  0.3382
      Cm = -0.1632     CD =  0.00518   =>   CDf =  0.00413    CDp =  0.00105

 Side 1  free  transition at x/c =  0.6968   57
 Side 2  free  transition at x/c =  0.2055   33

   8   rms: 0.4517E-04   max: 0.9248E-03   C at   33  2
       a = -3.250      CL =  0.3382
      Cm = -0.1632     CD =  0.00518   =>   CDf =  0.00413    CDp =  0.00105
 plradd ia,ip,cpol            8          77  1.53999997E-03

 Point added to stored polar  1
 Point written to save file  aux_files\tp2a44e57a_bfd7_4d1f_a97c_d08ea460100e
 Dump file unspecified or not available

.OPERva   c>   Calculating wake trajectory ...
 Calculating source influence matrix ...

 Solving BL system ...

 Side 1  free  transition at x/c =  0.6968   57
 Side 2  free  transition at x/c =  0.2055   33

   1   rms: 0.9194E-01   max: -.2061E+01   C at   33  2   RLX: 0.243
       a = -3.000      CL =  0.3452
      Cm = -0.1633     CD =  0.00517   =>   CDf =  0.00413    CDp =  0.00104

 Side 1  free  transition at x/c =  0.6950   57
 Side 2  free  transition at x/c =  0.2106   34

   2   rms: 0.6338E-01   max: 0.7998E+00   D at   34  2
       a = -3.000      CL =  0.3668
      Cm = -0.1636     CD =  0.00506   =>   CDf =  0.00413    CDp =  0.00094

 Side 1  free  transition at x/c =  0.6894   57
 Side 2  free  transition at x/c =  0.2214   33

   3   rms: 0.1258E-01   max: -.3183E+00   C at   33  2
       a = -3.000      CL =  0.3670
      Cm = -0.1635     CD =  0.00514   =>   CDf =  0.00412    CDp =  0.00102

 Side 1  free  transition at x/c =  0.6893   57
 Side 2  free  transition at x/c =  0.2337   34

   4   rms: 0.4042E-02   max: -.6702E-01   D at   34  2
       a = -3.000      CL =  0.3669
      Cm = -0.1636     CD =  0.00510   =>   CDf =  0.00408    CDp =  0.00102

 Side 1  free  transition at x/c =  0.6893   57
 Side 2  free  transition at x/c =  0.2307   34

   5   rms: 0.5796E-03   max: -.1136E-01   C at   34  2
       a = -3.000      CL =  0.3669
      Cm = -0.1636     CD =  0.00511   =>   CDf =  0.00409    CDp =  0.00102

 Side 1  free  transition at x/c =  0.6893   57
 Side 2  free  transition at x/c =  0.2310   34

   6   rms: 0.1446E-05   max: -.2591E-04   C at   34  2
       a = -3.000      CL =  0.3669
      Cm = -0.1636     CD =  0.00511   =>   CDf =  0.00409    CDp =  0.00102
 plradd ia,ip,cpol            9          78  1.53999997E-03

 Point added to stored polar  1
 Point written to save file  aux_files\tp2a44e57a_bfd7_4d1f_a97c_d08ea460100e
 Dump file unspecified or not available

.OPERva   c>   Calculating wake trajectory ...
 Calculating source influence matrix ...

 Solving BL system ...

 Side 1  free  transition at x/c =  0.6893   57
 Side 2  free  transition at x/c =  0.2310   34

   1   rms: 0.6795E-01   max: -.1104E+01   C at   34  2   RLX: 0.453
       a = -2.750      CL =  0.3803
      Cm = -0.1638     CD =  0.00507   =>   CDf =  0.00409    CDp =  0.00098

 Side 1  free  transition at x/c =  0.6868   57
 Side 2  free  transition at x/c =  0.2365   34

   2   rms: 0.2845E-01   max: -.3921E+00   C at   34  2
       a = -2.750      CL =  0.3963
      Cm = -0.1640     CD =  0.00508   =>   CDf =  0.00408    CDp =  0.00100

 Side 1  free  transition at x/c =  0.6828   57
 Side 2  free  transition at x/c =  0.2572   36

   3   rms: 0.3962E-02   max: 0.7077E-01   D at   34  2
       a = -2.750      CL =  0.3962
      Cm = -0.1640     CD =  0.00502   =>   CDf =  0.00403    CDp =  0.00099

 Side 1  free  transition at x/c =  0.6832   57
 Side 2  free  transition at x/c =  0.2542   36

   4   rms: 0.6998E-03   max: 0.1327E-01   D at   36  2
       a = -2.750      CL =  0.3962
      Cm = -0.1640     CD =  0.00503   =>   CDf =  0.00404    CDp =  0.00099

 Side 1  free  transition at x/c =  0.6832   57
 Side 2  free  transition at x/c =  0.2542   36

   5   rms: 0.4650E-05   max: -.7413E-04   D at   36  2
       a = -2.750      CL =  0.3962
      Cm = -0.1640     CD =  0.00503   =>   CDf =  0.00404    CDp =  0.00100
 plradd ia,ip,cpol           10          78  0.42918000    

 Point added to stored polar  1
 Point written to save file  aux_files\tp2a44e57a_bfd7_4d1f_a97c_d08ea460100e
 Dump file unspecified or not available

.OPERva   c>   Calculating wake trajectory ...
 Calculating source influence matrix ...

 Solving BL system ...

 Side 1  free  transition at x/c =  0.6832   57
 Side 2  free  transition at x/c =  0.2542   36

   1   rms: 0.7427E-01   max: 0.8799E+00   D at   36  2
       a = -2.500      CL =  0.4250
      Cm = -0.1644     CD =  0.00493   =>   CDf =  0.00404    CDp =  0.00089

 Side 1  free  transition at x/c =  0.6744   56
 Side 2  free  transition at x/c =  0.2675   36

   2   rms: 0.1468E-01   max: -.3353E+00   C at   36  2
       a = -2.500      CL =  0.4248
      Cm = -0.1643     CD =  0.00503   =>   CDf =  0.00405    CDp =  0.00098

 Side 1  free  transition at x/c =  0.6745   56
 Side 2  free  transition at x/c =  0.2843   38

   3   rms: 0.3938E-02   max: -.6600E-01   D at   37  2
       a = -2.500      CL =  0.4247
      Cm = -0.1644     CD =  0.00497   =>   CDf =  0.00400    CDp =  0.00097

 Side 1  free  transition at x/c =  0.6745   56
 Side 2  free  transition at x/c =  0.2835   38

   4   rms: 0.3256E-03   max: 0.3418E-02   T at   38  2
       a = -2.500      CL =  0.4247
      Cm = -0.1643     CD =  0.00498   =>   CDf =  0.00399    CDp =  0.00098

 Side 1  free  transition at x/c =  0.6745   56
 Side 2  free  transition at x/c =  0.2833   37

   5   rms: 0.4452E-04   max: -.1017E-02   C at   37  2
       a = -2.500      CL =  0.4247
      Cm = -0.1643     CD =  0.00498   =>   CDf =  0.00400    CDp =  0.00098
 plradd ia,ip,cpol           11          78  0.39862999    

 Point added to stored polar  1
 Point written to save file  aux_files\tp2a44e57a_bfd7_4d1f_a97c_d08ea460100e
 Dump file unspecified or not available

.OPERva   c>   Calculating wake trajectory ...
 Calculating source influence matrix ...

 Solving BL system ...

 Side 1  free  transition at x/c =  0.6745   56
 Side 2  free  transition at x/c =  0.2833   37

   1   rms: 0.1111E+00   max: -.2445E+01   C at   37  2   RLX: 0.205
       a = -2.250      CL =  0.4307
      Cm = -0.1645     CD =  0.00496   =>   CDf =  0.00399    CDp =  0.00097

 Side 1  free  transition at x/c =  0.6736   57
 Side 2  free  transition at x/c =  0.2962   37

   2   rms: 0.6454E-01   max: -.5657E+00   C at   37  2   RLX: 0.884
       a = -2.250      CL =  0.4514
      Cm = -0.1648     CD =  0.00490   =>   CDf =  0.00396    CDp =  0.00094

 Side 1  free  transition at x/c =  0.6690   57
 Side 2  free  transition at x/c =  0.2991   37

   3   rms: 0.1262E-01   max: -.2048E+00   C at   37  2
       a = -2.250      CL =  0.4540
      Cm = -0.1648     CD =  0.00494   =>   CDf =  0.00398    CDp =  0.00096

 Side 1  free  transition at x/c =  0.6688   57
 Side 2  free  transition at x/c =  0.3268   39

   4   rms: 0.1245E-01   max: -.2130E+00   D at   39  2
       a = -2.250      CL =  0.4539
      Cm = -0.1649     CD =  0.00485   =>   CDf =  0.00389    CDp =  0.00096

 Side 1  free  transition at x/c =  0.6688   57
 Side 2  free  transition at x/c =  0.3216   39

   5   rms: 0.5946E-03   max: -.9203E-02   D at   38  2
       a = -2.250      CL =  0.4539
      Cm = -0.1648     CD =  0.00487   =>   CDf =  0.00390    CDp =  0.00097

 Side 1  free  transition at x/c =  0.6688   57
 Side 2  free  transition at x/c =  0.3216   39

   6   rms: 0.6772E-05   max: 0.1001E-03   C at   39  2
       a = -2.250      CL =  0.4539
      Cm = -0.1648     CD =  0.00487   =>   CDf =  0.00390    CDp =  0.00097
 plradd ia,ip,cpol           12          79  0.39862999    

 Point added to stored polar  1
 Point written to save file  aux_files\tp2a44e57a_bfd7_4d1f_a97c_d08ea460100e
 Dump file unspecified or not available

.OPERva   c>   Calculating wake trajectory ...
 Calculating source influence matrix ...

 Solving BL system ...

 Side 1  free  transition at x/c =  0.6688   57
 Side 2  free  transition at x/c =  0.3216   39

   1   rms: 0.6244E-01   max: 0.6855E+00   D at   39  2   RLX: 0.925
       a = -2.000      CL =  0.4807
      Cm = -0.1652     CD =  0.00482   =>   CDf =  0.00390    CDp =  0.00092

 Side 1  free  transition at x/c =  0.6609   57
 Side 2  free  transition at x/c =  0.3271   39

   2   rms: 0.1032E-01   max: -.2095E+00   C at   39  2
       a = -2.000      CL =  0.4826
      Cm = -0.1651     CD =  0.00489   =>   CDf =  0.00392    CDp =  0.00097

 Side 1  free  transition at x/c =  0.6609   57
 Side 2  free  transition at x/c =  0.3307   39

   3   rms: 0.1298E-02   max: -.3255E-01   C at   39  2
       a = -2.000      CL =  0.4826
      Cm = -0.1651     CD =  0.00489   =>   CDf =  0.00392    CDp =  0.00098

 Side 1  free  transition at x/c =  0.6608   57
 Side 2  free  transition at x/c =  0.3309   40

   4   rms: 0.3691E-03   max: -.5265E-02   D at   39  2
       a = -2.000      CL =  0.4826
      Cm = -0.1651     CD =  0.00489   =>   CDf =  0.00392    CDp =  0.00097

 Side 1  free  transition at x/c =  0.6608   57
 Side 2  free  transition at x/c =  0.3311   40

   5   rms: 0.5603E-05   max: -.1015E-03   D at   40  2
       a = -2.000      CL =  0.4826
      Cm = -0.1651     CD =  0.00489   =>   CDf =  0.00392    CDp =  0.00098
 plradd ia,ip,cpol           13          79  0.39862999    

 Point added to stored polar  1
 Point written to save file  aux_files\tp2a44e57a_bfd7_4d1f_a97c_d08ea460100e
 Dump file unspecified or not available

.OPERva   c>   Calculating wake trajectory ...
 Calculating source influence matrix ...

 Solving BL system ...

 Side 1  free  transition at x/c =  0.6608   57
 Side 2  free  transition at x/c =  0.3311   40

   1   rms: 0.4265E-01   max: 0.1917E+00   D at   40  2
       a = -1.750      CL =  0.5111
      Cm = -0.1654     CD =  0.00492   =>   CDf =  0.00391    CDp =  0.00101

 Side 1  free  transition at x/c =  0.6549   57
 Side 2  free  transition at x/c =  0.3441   39

   2   rms: 0.4821E-02   max: 0.8394E-01   C at   39  2
       a = -1.750      CL =  0.5118
      Cm = -0.1655     CD =  0.00488   =>   CDf =  0.00390    CDp =  0.00098

 Side 1  free  transition at x/c =  0.6554   57
 Side 2  free  transition at x/c =  0.3419   39

   3   rms: 0.1907E-03   max: -.2958E-02   C at   39  2
       a = -1.750      CL =  0.5118
      Cm = -0.1655     CD =  0.00488   =>   CDf =  0.00391    CDp =  0.00097

 Side 1  free  transition at x/c =  0.6554   57
 Side 2  free  transition at x/c =  0.3420   39

   4   rms: 0.4928E-06   max: 0.3006E-05   C at   39  2
       a = -1.750      CL =  0.5118
      Cm = -0.1655     CD =  0.00488   =>   CDf =  0.00391    CDp =  0.00097
 plradd ia,ip,cpol           14          80  0.39862999    

 Point added to stored polar  1
 Point written to save file  aux_files\tp2a44e57a_bfd7_4d1f_a97c_d08ea460100e
 Dump file unspecified or not available

.OPERva   c>   Calculating wake trajectory ...
 Calculating source influence matrix ...

 Solving BL system ...

 Side 1  free  transition at x/c =  0.6554   57
 Side 2  free  transition at x/c =  0.3420   39

   1   rms: 0.4251E-01   max: -.2836E+00   C at   39  2
       a = -1.500      CL =  0.5410
      Cm = -0.1659     CD =  0.00489   =>   CDf =  0.00391    CDp =  0.00098

 Side 1  free  transition at x/c =  0.6468   57
 Side 2  free  transition at x/c =  0.3461   39

   2   rms: 0.4042E-02   max: -.7148E-01   C at   39  2
       a = -1.500      CL =  0.5405
      Cm = -0.1658     CD =  0.00492   =>   CDf =  0.00394    CDp =  0.00098

 Side 1  free  transition at x/c =  0.6481   57
 Side 2  free  transition at x/c =  0.3469   40

   3   rms: 0.4012E-03   max: -.4859E-02   D at   39  2
       a = -1.500      CL =  0.5405
      Cm = -0.1658     CD =  0.00492   =>   CDf =  0.00393    CDp =  0.00099

 Side 1  free  transition at x/c =  0.6481   57
 Side 2  free  transition at x/c =  0.3471   40

   4   rms: 0.5083E-05   max: -.8826E-04   D at   40  2
       a = -1.500      CL =  0.5405
      Cm = -0.1658     CD =  0.00492   =>   CDf =  0.00393    CDp =  0.00099
 plradd ia,ip,cpol           15          80  0.39862999    

 Point added to stored polar  1
 Point written to save file  aux_files\tp2a44e57a_bfd7_4d1f_a97c_d08ea460100e
 Dump file unspecified or not available

.OPERva   c>   Calculating wake trajectory ...
 Calculating source influence matrix ...

 Solving BL system ...

 Side 1  free  transition at x/c =  0.6481   57
 Side 2  free  transition at x/c =  0.3471   40

   1   rms: 0.4230E-01   max: 0.1446E+00   D at   40  2
       a = -1.250      CL =  0.5688
      Cm = -0.1660     CD =  0.00496   =>   CDf =  0.00393    CDp =  0.00103

 Side 1  free  transition at x/c =  0.6413   56
 Side 2  free  transition at x/c =  0.3597   40

   2   rms: 0.5814E-02   max: 0.1188E+00   C at   40  2
       a = -1.250      CL =  0.5694
      Cm = -0.1662     CD =  0.00492   =>   CDf =  0.00392    CDp =  0.00100

 Side 1  free  transition at x/c =  0.6412   56
 Side 2  free  transition at x/c =  0.3570   40

   3   rms: 0.1691E-03   max: -.3385E-02   C at   40  2
       a = -1.250      CL =  0.5694
      Cm = -0.1662     CD =  0.00492   =>   CDf =  0.00393    CDp =  0.00100

 Side 1  free  transition at x/c =  0.6412   56
 Side 2  free  transition at x/c =  0.3571   40

   4   rms: 0.6596E-06   max: -.9302E-05   C at   56  1
       a = -1.250      CL =  0.5694
      Cm = -0.1662     CD =  0.00492   =>   CDf =  0.00393    CDp =  0.00100
 plradd ia,ip,cpol           16          80  0.36815000    

 Point added to stored polar  1
 Point written to save file  aux_files\tp2a44e57a_bfd7_4d1f_a97c_d08ea460100e
 Dump file unspecified or not available

.OPERva   c>   Calculating wake trajectory ...
 Calculating source influence matrix ...

 Solving BL system ...

 Side 1  free  transition at x/c =  0.6412   56
 Side 2  free  transition at x/c =  0.3571   40

   1   rms: 0.4384E-01   max: -.3286E+00   C at   40  2
       a = -1.000      CL =  0.5985
      Cm = -0.1666     CD =  0.00493   =>   CDf =  0.00391    CDp =  0.00102

 Side 1  free  transition at x/c =  0.6323   57
 Side 2  free  transition at x/c =  0.3619   39

   2   rms: 0.6488E-02   max: -.8922E-01   C at   39  2
       a = -1.000      CL =  0.5980
      Cm = -0.1664     CD =  0.00496   =>   CDf =  0.00396    CDp =  0.00100

 Side 1  free  transition at x/c =  0.6337   57
 Side 2  free  transition at x/c =  0.3626   39

   3   rms: 0.2423E-02   max: -.5980E-01   C at   39  2
       a = -1.000      CL =  0.5980
      Cm = -0.1664     CD =  0.00496   =>   CDf =  0.00395    CDp =  0.00101

 Side 1  free  transition at x/c =  0.6336   57
 Side 2  free  transition at x/c =  0.3626   39

   4   rms: 0.2486E-02   max: -.6159E-01   C at   39  2
       a = -1.000      CL =  0.5980
      Cm = -0.1664     CD =  0.00496   =>   CDf =  0.00395    CDp =  0.00101

 Side 1  free  transition at x/c =  0.6336   57
 Side 2  free  transition at x/c =  0.3626   39

   5   rms: 0.2485E-02   max: -.6158E-01   C at   39  2
       a = -1.000      CL =  0.5980
      Cm = -0.1664     CD =  0.00496   =>   CDf =  0.00395    CDp =  0.00101

 Side 1  free  transition at x/c =  0.6336   57
 Side 2  free  transition at x/c =  0.3626   39

   6   rms: 0.2485E-02   max: -.6158E-01   C at   39  2
       a = -1.000      CL =  0.5980
      Cm = -0.1664     CD =  0.00496   =>   CDf =  0.00395    CDp =  0.00101

 Side 1  free  transition at x/c =  0.6336   57
 Side 2  free  transition at x/c =  0.3626   39

   7   rms: 0.2485E-02   max: -.6158E-01   C at   39  2
       a = -1.000      CL =  0.5980
      Cm = -0.1664     CD =  0.00496   =>   CDf =  0.00395    CDp =  0.00101

 Side 1  free  transition at x/c =  0.6336   57
 Side 2  free  transition at x/c =  0.3626   39

   8   rms: 0.2485E-02   max: -.6158E-01   C at   39  2
       a = -1.000      CL =  0.5980
      Cm = -0.1664     CD =  0.00496   =>   CDf =  0.00395    CDp =  0.00101

 Side 1  free  transition at x/c =  0.6336   57
 Side 2  free  transition at x/c =  0.3626   39

   9   rms: 0.2485E-02   max: -.6158E-01   C at   39  2
       a = -1.000      CL =  0.5980
      Cm = -0.1664     CD =  0.00496   =>   CDf =  0.00395    CDp =  0.00101

 Side 1  free  transition at x/c =  0.6336   57
 Side 2  free  transition at x/c =  0.3626   39

  10   rms: 0.2485E-02   max: -.6158E-01   C at   39  2
       a = -1.000      CL =  0.5980
      Cm = -0.1664     CD =  0.00496   =>   CDf =  0.00395    CDp =  0.00101

 Side 1  free  transition at x/c =  0.6336   57
 Side 2  free  transition at x/c =  0.3626   39

  11   rms: 0.2485E-02   max: -.6158E-01   C at   39  2
       a = -1.000      CL =  0.5980
      Cm = -0.1664     CD =  0.00496   =>   CDf =  0.00395    CDp =  0.00101

 Side 1  free  transition at x/c =  0.6336   57
 Side 2  free  transition at x/c =  0.3626   39

  12   rms: 0.2485E-02   max: -.6158E-01   C at   39  2
       a = -1.000      CL =  0.5980
      Cm = -0.1664     CD =  0.00496   =>   CDf =  0.00395    CDp =  0.00101

 Side 1  free  transition at x/c =  0.6336   57
 Side 2  free  transition at x/c =  0.3626   39

  13   rms: 0.2485E-02   max: -.6158E-01   C at   39  2
       a = -1.000      CL =  0.5980
      Cm = -0.1664     CD =  0.00496   =>   CDf =  0.00395    CDp =  0.00101

 Side 1  free  transition at x/c =  0.6336   57
 Side 2  free  transition at x/c =  0.3626   39

  14   rms: 0.2485E-02   max: -.6158E-01   C at   39  2
       a = -1.000      CL =  0.5980
      Cm = -0.1664     CD =  0.00496   =>   CDf =  0.00395    CDp =  0.00101

 Side 1  free  transition at x/c =  0.6336   57
 Side 2  free  transition at x/c =  0.3626   39

  15   rms: 0.2485E-02   max: -.6158E-01   C at   39  2
       a = -1.000      CL =  0.5980
      Cm = -0.1664     CD =  0.00496   =>   CDf =  0.00395    CDp =  0.00101

 Side 1  free  transition at x/c =  0.6336   57
 Side 2  free  transition at x/c =  0.3626   39

  16   rms: 0.2485E-02   max: -.6158E-01   C at   39  2
       a = -1.000      CL =  0.5980
      Cm = -0.1664     CD =  0.00496   =>   CDf =  0.00395    CDp =  0.00101

 Side 1  free  transition at x/c =  0.6336   57
 Side 2  free  transition at x/c =  0.3626   39

  17   rms: 0.2485E-02   max: -.6158E-01   C at   39  2
       a = -1.000      CL =  0.5980
      Cm = -0.1664     CD =  0.00496   =>   CDf =  0.00395    CDp =  0.00101

 Side 1  free  transition at x/c =  0.6336   57
 Side 2  free  transition at x/c =  0.3626   39

  18   rms: 0.2485E-02   max: -.6159E-01   C at   39  2
       a = -1.000      CL =  0.5980
      Cm = -0.1664     CD =  0.00496   =>   CDf =  0.00395    CDp =  0.00101

 Side 1  free  transition at x/c =  0.6336   57
 Side 2  free  transition at x/c =  0.3626   39

  19   rms: 0.2485E-02   max: -.6158E-01   C at   39  2
       a = -1.000      CL =  0.5980
      Cm = -0.1664     CD =  0.00496   =>   CDf =  0.00395    CDp =  0.00101

 Side 1  free  transition at x/c =  0.6336   57
 Side 2  free  transition at x/c =  0.3626   39

  20   rms: 0.2485E-02   max: -.6158E-01   C at   39  2
       a = -1.000      CL =  0.5980
      Cm = -0.1664     CD =  0.00496   =>   CDf =  0.00395    CDp =  0.00101

 Side 1  free  transition at x/c =  0.6336   57
 Side 2  free  transition at x/c =  0.3626   39

  21   rms: 0.2485E-02   max: -.6158E-01   C at   39  2
       a = -1.000      CL =  0.5980
      Cm = -0.1664     CD =  0.00496   =>   CDf =  0.00395    CDp =  0.00101

 Side 1  free  transition at x/c =  0.6336   57
 Side 2  free  transition at x/c =  0.3626   39

  22   rms: 0.2485E-02   max: -.6158E-01   C at   39  2
       a = -1.000      CL =  0.5980
      Cm = -0.1664     CD =  0.00496   =>   CDf =  0.00395    CDp =  0.00101

 Side 1  free  transition at x/c =  0.6336   57
 Side 2  free  transition at x/c =  0.3626   39

  23   rms: 0.2485E-02   max: -.6158E-01   C at   39  2
       a = -1.000      CL =  0.5980
      Cm = -0.1664     CD =  0.00496   =>   CDf =  0.00395    CDp =  0.00101

 Side 1  free  transition at x/c =  0.6336   57
 Side 2  free  transition at x/c =  0.3626   39

  24   rms: 0.2485E-02   max: -.6158E-01   C at   39  2
       a = -1.000      CL =  0.5980
      Cm = -0.1664     CD =  0.00496   =>   CDf =  0.00395    CDp =  0.00101

 Side 1  free  transition at x/c =  0.6336   57
 Side 2  free  transition at x/c =  0.3626   39

  25   rms: 0.2485E-02   max: -.6158E-01   C at   39  2
       a = -1.000      CL =  0.5980
      Cm = -0.1664     CD =  0.00496   =>   CDf =  0.00395    CDp =  0.00101

 Side 1  free  transition at x/c =  0.6336   57
 Side 2  free  transition at x/c =  0.3626   39

  26   rms: 0.2485E-02   max: -.6158E-01   C at   39  2
       a = -1.000      CL =  0.5980
      Cm = -0.1664     CD =  0.00496   =>   CDf =  0.00395    CDp =  0.00101

 Side 1  free  transition at x/c =  0.6336   57
 Side 2  free  transition at x/c =  0.3626   39

  27   rms: 0.2485E-02   max: -.6159E-01   C at   39  2
       a = -1.000      CL =  0.5980
      Cm = -0.1664     CD =  0.00496   =>   CDf =  0.00395    CDp =  0.00101

 Side 1  free  transition at x/c =  0.6336   57
 Side 2  free  transition at x/c =  0.3626   39

  28   rms: 0.2485E-02   max: -.6158E-01   C at   39  2
       a = -1.000      CL =  0.5980
      Cm = -0.1664     CD =  0.00496   =>   CDf =  0.00395    CDp =  0.00101

 Side 1  free  transition at x/c =  0.6336   57
 Side 2  free  transition at x/c =  0.3626   39

  29   rms: 0.2485E-02   max: -.6158E-01   C at   39  2
       a = -1.000      CL =  0.5980
      Cm = -0.1664     CD =  0.00496   =>   CDf =  0.00395    CDp =  0.00101

 Side 1  free  transition at x/c =  0.6336   57
 Side 2  free  transition at x/c =  0.3626   39

  30   rms: 0.2485E-02   max: -.6157E-01   C at   39  2
       a = -1.000      CL =  0.5980
      Cm = -0.1664     CD =  0.00496   =>   CDf =  0.00395    CDp =  0.00101

 Side 1  free  transition at x/c =  0.6336   57
 Side 2  free  transition at x/c =  0.3626   39

  31   rms: 0.2485E-02   max: -.6158E-01   C at   39  2
       a = -1.000      CL =  0.5980
      Cm = -0.1664     CD =  0.00496   =>   CDf =  0.00395    CDp =  0.00101

 Side 1  free  transition at x/c =  0.6336   57
 Side 2  free  transition at x/c =  0.3626   39

  32   rms: 0.2485E-02   max: -.6159E-01   C at   39  2
       a = -1.000      CL =  0.5980
      Cm = -0.1664     CD =  0.00496   =>   CDf =  0.00395    CDp =  0.00101

 Side 1  free  transition at x/c =  0.6336   57
 Side 2  free  transition at x/c =  0.3626   39

  33   rms: 0.2485E-02   max: -.6158E-01   C at   39  2
       a = -1.000      CL =  0.5980
      Cm = -0.1664     CD =  0.00496   =>   CDf =  0.00395    CDp =  0.00101

 Side 1  free  transition at x/c =  0.6336   57
 Side 2  free  transition at x/c =  0.3626   39

  34   rms: 0.2485E-02   max: -.6158E-01   C at   39  2
       a = -1.000      CL =  0.5980
      Cm = -0.1664     CD =  0.00496   =>   CDf =  0.00395    CDp =  0.00101

 Side 1  free  transition at x/c =  0.6336   57
 Side 2  free  transition at x/c =  0.3626   39

  35   rms: 0.2485E-02   max: -.6158E-01   C at   39  2
       a = -1.000      CL =  0.5980
      Cm = -0.1664     CD =  0.00496   =>   CDf =  0.00395    CDp =  0.00101

 Side 1  free  transition at x/c =  0.6336   57
 Side 2  free  transition at x/c =  0.3626   39

  36   rms: 0.2485E-02   max: -.6158E-01   C at   39  2
       a = -1.000      CL =  0.5980
      Cm = -0.1664     CD =  0.00496   =>   CDf =  0.00395    CDp =  0.00101

 Side 1  free  transition at x/c =  0.6336   57
 Side 2  free  transition at x/c =  0.3626   39

  37   rms: 0.2485E-02   max: -.6159E-01   C at   39  2
       a = -1.000      CL =  0.5980
      Cm = -0.1664     CD =  0.00496   =>   CDf =  0.00395    CDp =  0.00101

 Side 1  free  transition at x/c =  0.6336   57
 Side 2  free  transition at x/c =  0.3626   39

  38   rms: 0.2485E-02   max: -.6158E-01   C at   39  2
       a = -1.000      CL =  0.5980
      Cm = -0.1664     CD =  0.00496   =>   CDf =  0.00395    CDp =  0.00101

 Side 1  free  transition at x/c =  0.6336   57
 Side 2  free  transition at x/c =  0.3626   39

  39   rms: 0.2485E-02   max: -.6158E-01   C at   39  2
       a = -1.000      CL =  0.5980
      Cm = -0.1664     CD =  0.00496   =>   CDf =  0.00395    CDp =  0.00101

 Side 1  free  transition at x/c =  0.6336   57
 Side 2  free  transition at x/c =  0.3626   39

  40   rms: 0.2485E-02   max: -.6158E-01   C at   39  2
       a = -1.000      CL =  0.5980
      Cm = -0.1664     CD =  0.00496   =>   CDf =  0.00395    CDp =  0.00101

 Side 1  free  transition at x/c =  0.6336   57
 Side 2  free  transition at x/c =  0.3626   39

  41   rms: 0.2486E-02   max: -.6159E-01   C at   39  2
       a = -1.000      CL =  0.5980
      Cm = -0.1664     CD =  0.00496   =>   CDf =  0.00395    CDp =  0.00101

 Side 1  free  transition at x/c =  0.6336   57
 Side 2  free  transition at x/c =  0.3626   39

  42   rms: 0.2485E-02   max: -.6158E-01   C at   39  2
       a = -1.000      CL =  0.5980
      Cm = -0.1664     CD =  0.00496   =>   CDf =  0.00395    CDp =  0.00101

 Side 1  free  transition at x/c =  0.6336   57
 Side 2  free  transition at x/c =  0.3626   39

  43   rms: 0.2485E-02   max: -.6158E-01   C at   39  2
       a = -1.000      CL =  0.5980
      Cm = -0.1664     CD =  0.00496   =>   CDf =  0.00395    CDp =  0.00101

 Side 1  free  transition at x/c =  0.6336   57
 Side 2  free  transition at x/c =  0.3626   39

  44   rms: 0.2485E-02   max: -.6159E-01   C at   39  2
       a = -1.000      CL =  0.5980
      Cm = -0.1664     CD =  0.00496   =>   CDf =  0.00395    CDp =  0.00101

 Side 1  free  transition at x/c =  0.6336   57
 Side 2  free  transition at x/c =  0.3626   39

  45   rms: 0.2485E-02   max: -.6158E-01   C at   39  2
       a = -1.000      CL =  0.5980
      Cm = -0.1664     CD =  0.00496   =>   CDf =  0.00395    CDp =  0.00101

 Side 1  free  transition at x/c =  0.6336   57
 Side 2  free  transition at x/c =  0.3626   39

  46   rms: 0.2485E-02   max: -.6159E-01   C at   39  2
       a = -1.000      CL =  0.5980
      Cm = -0.1664     CD =  0.00496   =>   CDf =  0.00395    CDp =  0.00101

 Side 1  free  transition at x/c =  0.6336   57
 Side 2  free  transition at x/c =  0.3626   39

  47   rms: 0.2486E-02   max: -.6159E-01   C at   39  2
       a = -1.000      CL =  0.5980
      Cm = -0.1664     CD =  0.00496   =>   CDf =  0.00395    CDp =  0.00101

 Side 1  free  transition at x/c =  0.6336   57
 Side 2  free  transition at x/c =  0.3626   39

  48   rms: 0.2485E-02   max: -.6157E-01   C at   39  2
       a = -1.000      CL =  0.5980
      Cm = -0.1664     CD =  0.00496   =>   CDf =  0.00395    CDp =  0.00101

 Side 1  free  transition at x/c =  0.6336   57
 Side 2  free  transition at x/c =  0.3626   39

  49   rms: 0.2485E-02   max: -.6158E-01   C at   39  2
       a = -1.000      CL =  0.5980
      Cm = -0.1664     CD =  0.00496   =>   CDf =  0.00395    CDp =  0.00101

 Side 1  free  transition at x/c =  0.6336   57
 Side 2  free  transition at x/c =  0.3626   39

  50   rms: 0.2485E-02   max: -.6159E-01   C at   39  2
       a = -1.000      CL =  0.5980
      Cm = -0.1664     CD =  0.00496   =>   CDf =  0.00395    CDp =  0.00101

 Side 1  free  transition at x/c =  0.6336   57
 Side 2  free  transition at x/c =  0.3626   39

  51   rms: 0.2486E-02   max: -.6159E-01   C at   39  2
       a = -1.000      CL =  0.5980
      Cm = -0.1664     CD =  0.00496   =>   CDf =  0.00395    CDp =  0.00101

 Side 1  free  transition at x/c =  0.6336   57
 Side 2  free  transition at x/c =  0.3626   39

  52   rms: 0.2485E-02   max: -.6159E-01   C at   39  2
       a = -1.000      CL =  0.5980
      Cm = -0.1664     CD =  0.00496   =>   CDf =  0.00395    CDp =  0.00101

 Side 1  free  transition at x/c =  0.6336   57
 Side 2  free  transition at x/c =  0.3626   39

  53   rms: 0.2485E-02   max: -.6159E-01   C at   39  2
       a = -1.000      CL =  0.5980
      Cm = -0.1664     CD =  0.00496   =>   CDf =  0.00395    CDp =  0.00101

 Side 1  free  transition at x/c =  0.6336   57
 Side 2  free  transition at x/c =  0.3626   39

  54   rms: 0.2485E-02   max: -.6158E-01   C at   39  2
       a = -1.000      CL =  0.5980
      Cm = -0.1664     CD =  0.00496   =>   CDf =  0.00395    CDp =  0.00101

 Side 1  free  transition at x/c =  0.6336   57
 Side 2  free  transition at x/c =  0.3626   39

  55   rms: 0.2485E-02   max: -.6159E-01   C at   39  2
       a = -1.000      CL =  0.5980
      Cm = -0.1664     CD =  0.00496   =>   CDf =  0.00395    CDp =  0.00101

 Side 1  free  transition at x/c =  0.6336   57
 Side 2  free  transition at x/c =  0.3626   39

  56   rms: 0.2485E-02   max: -.6158E-01   C at   39  2
       a = -1.000      CL =  0.5980
      Cm = -0.1664     CD =  0.00496   =>   CDf =  0.00395    CDp =  0.00101

 Side 1  free  transition at x/c =  0.6336   57
 Side 2  free  transition at x/c =  0.3626   39

  57   rms: 0.2485E-02   max: -.6159E-01   C at   39  2
       a = -1.000      CL =  0.5980
      Cm = -0.1664     CD =  0.00496   =>   CDf =  0.00395    CDp =  0.00101

 Side 1  free  transition at x/c =  0.6336   57
 Side 2  free  transition at x/c =  0.3626   39

  58   rms: 0.2485E-02   max: -.6158E-01   C at   39  2
       a = -1.000      CL =  0.5980
      Cm = -0.1664     CD =  0.00496   =>   CDf =  0.00395    CDp =  0.00101

 Side 1  free  transition at x/c =  0.6336   57
 Side 2  free  transition at x/c =  0.3626   39

  59   rms: 0.2485E-02   max: -.6158E-01   C at   39  2
       a = -1.000      CL =  0.5980
      Cm = -0.1664     CD =  0.00496   =>   CDf =  0.00395    CDp =  0.00101

 Side 1  free  transition at x/c =  0.6336   57
 Side 2  free  transition at x/c =  0.3626   39

  60   rms: 0.2485E-02   max: -.6158E-01   C at   39  2
       a = -1.000      CL =  0.5980
      Cm = -0.1664     CD =  0.00496   =>   CDf =  0.00395    CDp =  0.00101

 Side 1  free  transition at x/c =  0.6336   57
 Side 2  free  transition at x/c =  0.3626   39

  61   rms: 0.2485E-02   max: -.6158E-01   C at   39  2
       a = -1.000      CL =  0.5980
      Cm = -0.1664     CD =  0.00496   =>   CDf =  0.00395    CDp =  0.00101

 Side 1  free  transition at x/c =  0.6336   57
 Side 2  free  transition at x/c =  0.3626   39

  62   rms: 0.2485E-02   max: -.6158E-01   C at   39  2
       a = -1.000      CL =  0.5980
      Cm = -0.1664     CD =  0.00496   =>   CDf =  0.00395    CDp =  0.00101

 Side 1  free  transition at x/c =  0.6336   57
 Side 2  free  transition at x/c =  0.3626   39

  63   rms: 0.2485E-02   max: -.6158E-01   C at   39  2
       a = -1.000      CL =  0.5980
      Cm = -0.1664     CD =  0.00496   =>   CDf =  0.00395    CDp =  0.00101

 Side 1  free  transition at x/c =  0.6336   57
 Side 2  free  transition at x/c =  0.3626   39

  64   rms: 0.2485E-02   max: -.6158E-01   C at   39  2
       a = -1.000      CL =  0.5980
      Cm = -0.1664     CD =  0.00496   =>   CDf =  0.00395    CDp =  0.00101

 Side 1  free  transition at x/c =  0.6336   57
 Side 2  free  transition at x/c =  0.3626   39

  65   rms: 0.2485E-02   max: -.6158E-01   C at   39  2
       a = -1.000      CL =  0.5980
      Cm = -0.1664     CD =  0.00496   =>   CDf =  0.00395    CDp =  0.00101

 Side 1  free  transition at x/c =  0.6336   57
 Side 2  free  transition at x/c =  0.3626   39

  66   rms: 0.2485E-02   max: -.6158E-01   C at   39  2
       a = -1.000      CL =  0.5980
      Cm = -0.1664     CD =  0.00496   =>   CDf =  0.00395    CDp =  0.00101

 Side 1  free  transition at x/c =  0.6336   57
 Side 2  free  transition at x/c =  0.3626   39

  67   rms: 0.2485E-02   max: -.6158E-01   C at   39  2
       a = -1.000      CL =  0.5980
      Cm = -0.1664     CD =  0.00496   =>   CDf =  0.00395    CDp =  0.00101

 Side 1  free  transition at x/c =  0.6336   57
 Side 2  free  transition at x/c =  0.3626   39

  68   rms: 0.2485E-02   max: -.6158E-01   C at   39  2
       a = -1.000      CL =  0.5980
      Cm = -0.1664     CD =  0.00496   =>   CDf =  0.00395    CDp =  0.00101

 Side 1  free  transition at x/c =  0.6336   57
 Side 2  free  transition at x/c =  0.3626   39

  69   rms: 0.2485E-02   max: -.6158E-01   C at   39  2
       a = -1.000      CL =  0.5980
      Cm = -0.1664     CD =  0.00496   =>   CDf =  0.00395    CDp =  0.00101

 Side 1  free  transition at x/c =  0.6336   57
 Side 2  free  transition at x/c =  0.3626   39

  70   rms: 0.2485E-02   max: -.6158E-01   C at   39  2
       a = -1.000      CL =  0.5980
      Cm = -0.1664     CD =  0.00496   =>   CDf =  0.00395    CDp =  0.00101

 Side 1  free  transition at x/c =  0.6336   57
 Side 2  free  transition at x/c =  0.3626   39

  71   rms: 0.2485E-02   max: -.6159E-01   C at   39  2
       a = -1.000      CL =  0.5980
      Cm = -0.1664     CD =  0.00496   =>   CDf =  0.00395    CDp =  0.00101

 Side 1  free  transition at x/c =  0.6336   57
 Side 2  free  transition at x/c =  0.3626   39

  72   rms: 0.2485E-02   max: -.6158E-01   C at   39  2
       a = -1.000      CL =  0.5980
      Cm = -0.1664     CD =  0.00496   =>   CDf =  0.00395    CDp =  0.00101

 Side 1  free  transition at x/c =  0.6336   57
 Side 2  free  transition at x/c =  0.3626   39

  73   rms: 0.2485E-02   max: -.6159E-01   C at   39  2
       a = -1.000      CL =  0.5980
      Cm = -0.1664     CD =  0.00496   =>   CDf =  0.00395    CDp =  0.00101

 Side 1  free  transition at x/c =  0.6336   57
 Side 2  free  transition at x/c =  0.3626   39

  74   rms: 0.2485E-02   max: -.6158E-01   C at   39  2
       a = -1.000      CL =  0.5980
      Cm = -0.1664     CD =  0.00496   =>   CDf =  0.00395    CDp =  0.00101

 Side 1  free  transition at x/c =  0.6336   57
 Side 2  free  transition at x/c =  0.3626   39

  75   rms: 0.2485E-02   max: -.6158E-01   C at   39  2
       a = -1.000      CL =  0.5980
      Cm = -0.1664     CD =  0.00496   =>   CDf =  0.00395    CDp =  0.00101

 Side 1  free  transition at x/c =  0.6336   57
 Side 2  free  transition at x/c =  0.3626   39

  76   rms: 0.2485E-02   max: -.6158E-01   C at   39  2
       a = -1.000      CL =  0.5980
      Cm = -0.1664     CD =  0.00496   =>   CDf =  0.00395    CDp =  0.00101

 Side 1  free  transition at x/c =  0.6336   57
 Side 2  free  transition at x/c =  0.3626   39

  77   rms: 0.2485E-02   max: -.6157E-01   C at   39  2
       a = -1.000      CL =  0.5980
      Cm = -0.1664     CD =  0.00496   =>   CDf =  0.00395    CDp =  0.00101

 Side 1  free  transition at x/c =  0.6336   57
 Side 2  free  transition at x/c =  0.3626   39

  78   rms: 0.2485E-02   max: -.6158E-01   C at   39  2
       a = -1.000      CL =  0.5980
      Cm = -0.1664     CD =  0.00496   =>   CDf =  0.00395    CDp =  0.00101

 Side 1  free  transition at x/c =  0.6336   57
 Side 2  free  transition at x/c =  0.3626   39

  79   rms: 0.2485E-02   max: -.6158E-01   C at   39  2
       a = -1.000      CL =  0.5980
      Cm = -0.1664     CD =  0.00496   =>   CDf =  0.00395    CDp =  0.00101

 Side 1  free  transition at x/c =  0.6336   57
 Side 2  free  transition at x/c =  0.3626   39

  80   rms: 0.2485E-02   max: -.6159E-01   C at   39  2
       a = -1.000      CL =  0.5980
      Cm = -0.1664     CD =  0.00496   =>   CDf =  0.00395    CDp =  0.00101

 Side 1  free  transition at x/c =  0.6336   57
 Side 2  free  transition at x/c =  0.3626   39

  81   rms: 0.2485E-02   max: -.6158E-01   C at   39  2
       a = -1.000      CL =  0.5980
      Cm = -0.1664     CD =  0.00496   =>   CDf =  0.00395    CDp =  0.00101

 Side 1  free  transition at x/c =  0.6336   57
 Side 2  free  transition at x/c =  0.3626   39

  82   rms: 0.2485E-02   max: -.6158E-01   C at   39  2
       a = -1.000      CL =  0.5980
      Cm = -0.1664     CD =  0.00496   =>   CDf =  0.00395    CDp =  0.00101

 Side 1  free  transition at x/c =  0.6336   57
 Side 2  free  transition at x/c =  0.3626   39

  83   rms: 0.2485E-02   max: -.6158E-01   C at   39  2
       a = -1.000      CL =  0.5980
      Cm = -0.1664     CD =  0.00496   =>   CDf =  0.00395    CDp =  0.00101

 Side 1  free  transition at x/c =  0.6336   57
 Side 2  free  transition at x/c =  0.3626   39

  84   rms: 0.2485E-02   max: -.6159E-01   C at   39  2
       a = -1.000      CL =  0.5980
      Cm = -0.1664     CD =  0.00496   =>   CDf =  0.00395    CDp =  0.00101

 Side 1  free  transition at x/c =  0.6336   57
 Side 2  free  transition at x/c =  0.3626   39

  85   rms: 0.2485E-02   max: -.6158E-01   C at   39  2
       a = -1.000      CL =  0.5980
      Cm = -0.1664     CD =  0.00496   =>   CDf =  0.00395    CDp =  0.00101

 Side 1  free  transition at x/c =  0.6336   57
 Side 2  free  transition at x/c =  0.3626   39

  86   rms: 0.2485E-02   max: -.6159E-01   C at   39  2
       a = -1.000      CL =  0.5980
      Cm = -0.1664     CD =  0.00496   =>   CDf =  0.00395    CDp =  0.00101

 Side 1  free  transition at x/c =  0.6336   57
 Side 2  free  transition at x/c =  0.3626   39

  87   rms: 0.2485E-02   max: -.6158E-01   C at   39  2
       a = -1.000      CL =  0.5980
      Cm = -0.1664     CD =  0.00496   =>   CDf =  0.00395    CDp =  0.00101

 Side 1  free  transition at x/c =  0.6336   57
 Side 2  free  transition at x/c =  0.3626   39

  88   rms: 0.2485E-02   max: -.6158E-01   C at   39  2
       a = -1.000      CL =  0.5980
      Cm = -0.1664     CD =  0.00496   =>   CDf =  0.00395    CDp =  0.00101

 Side 1  free  transition at x/c =  0.6336   57
 Side 2  free  transition at x/c =  0.3626   39

  89   rms: 0.2485E-02   max: -.6158E-01   C at   39  2
       a = -1.000      CL =  0.5980
      Cm = -0.1664     CD =  0.00496   =>   CDf =  0.00395    CDp =  0.00101

 Side 1  free  transition at x/c =  0.6336   57
 Side 2  free  transition at x/c =  0.3626   39

  90   rms: 0.2485E-02   max: -.6158E-01   C at   39  2
       a = -1.000      CL =  0.5980
      Cm = -0.1664     CD =  0.00496   =>   CDf =  0.00395    CDp =  0.00101

 Side 1  free  transition at x/c =  0.6336   57
 Side 2  free  transition at x/c =  0.3626   39

  91   rms: 0.2485E-02   max: -.6158E-01   C at   39  2
       a = -1.000      CL =  0.5980
      Cm = -0.1664     CD =  0.00496   =>   CDf =  0.00395    CDp =  0.00101

 Side 1  free  transition at x/c =  0.6336   57
 Side 2  free  transition at x/c =  0.3626   39

  92   rms: 0.2485E-02   max: -.6158E-01   C at   39  2
       a = -1.000      CL =  0.5980
      Cm = -0.1664     CD =  0.00496   =>   CDf =  0.00395    CDp =  0.00101

 Side 1  free  transition at x/c =  0.6336   57
 Side 2  free  transition at x/c =  0.3626   39

  93   rms: 0.2485E-02   max: -.6158E-01   C at   39  2
       a = -1.000      CL =  0.5980
      Cm = -0.1664     CD =  0.00496   =>   CDf =  0.00395    CDp =  0.00101

 Side 1  free  transition at x/c =  0.6336   57
 Side 2  free  transition at x/c =  0.3626   39

  94   rms: 0.2485E-02   max: -.6159E-01   C at   39  2
       a = -1.000      CL =  0.5980
      Cm = -0.1664     CD =  0.00496   =>   CDf =  0.00395    CDp =  0.00101

 Side 1  free  transition at x/c =  0.6336   57
 Side 2  free  transition at x/c =  0.3626   39

  95   rms: 0.2485E-02   max: -.6158E-01   C at   39  2
       a = -1.000      CL =  0.5980
      Cm = -0.1664     CD =  0.00496   =>   CDf =  0.00395    CDp =  0.00101

 Side 1  free  transition at x/c =  0.6336   57
 Side 2  free  transition at x/c =  0.3626   39

  96   rms: 0.2485E-02   max: -.6158E-01   C at   39  2
       a = -1.000      CL =  0.5980
      Cm = -0.1664     CD =  0.00496   =>   CDf =  0.00395    CDp =  0.00101

 Side 1  free  transition at x/c =  0.6336   57
 Side 2  free  transition at x/c =  0.3626   39

  97   rms: 0.2485E-02   max: -.6158E-01   C at   39  2
       a = -1.000      CL =  0.5980
      Cm = -0.1664     CD =  0.00496   =>   CDf =  0.00395    CDp =  0.00101

 Side 1  free  transition at x/c =  0.6336   57
 Side 2  free  transition at x/c =  0.3626   39

  98   rms: 0.2485E-02   max: -.6158E-01   C at   39  2
       a = -1.000      CL =  0.5980
      Cm = -0.1664     CD =  0.00496   =>   CDf =  0.00395    CDp =  0.00101

 Side 1  free  transition at x/c =  0.6336   57
 Side 2  free  transition at x/c =  0.3626   39

  99   rms: 0.2485E-02   max: -.6158E-01   C at   39  2
       a = -1.000      CL =  0.5980
      Cm = -0.1664     CD =  0.00496   =>   CDf =  0.00395    CDp =  0.00101

 Side 1  free  transition at x/c =  0.6336   57
 Side 2  free  transition at x/c =  0.3626   39

 100   rms: 0.2485E-02   max: -.6158E-01   C at   39  2
       a = -1.000      CL =  0.5980
      Cm = -0.1664     CD =  0.00496   =>   CDf =  0.00395    CDp =  0.00101
 VISCAL:  Convergence failed

.OPERva   c>   Calculating wake trajectory ...
 Calculating source influence matrix ...

 Solving BL system ...

 Side 1  free  transition at x/c =  0.6336   57
 Side 2  free  transition at x/c =  0.3626   39

   1   rms: 0.4129E-01   max: 0.7745E-01   D at   39  2
       a = -0.750      CL =  0.6262
      Cm = -0.1666     CD =  0.00503   =>   CDf =  0.00395    CDp =  0.00108

 Side 1  free  transition at x/c =  0.6264   56
 Side 2  free  transition at x/c =  0.3732   40

   2   rms: 0.2260E-02   max: -.2844E-01   D at   57  1
       a = -0.750      CL =  0.6267
      Cm = -0.1668     CD =  0.00498   =>   CDf =  0.00395    CDp =  0.00103

 Side 1  free  transition at x/c =  0.6262   56
 Side 2  free  transition at x/c =  0.3737   40

   3   rms: 0.1343E-04   max: 0.2560E-03   C at   56  1
       a = -0.750      CL =  0.6267
      Cm = -0.1668     CD =  0.00498   =>   CDf =  0.00395    CDp =  0.00103
 plradd ia,ip,cpol           17          81  0.35295001    

 Point added to stored polar  1
 Point written to save file  aux_files\tp2a44e57a_bfd7_4d1f_a97c_d08ea460100e
 Dump file unspecified or not available

.OPERva   c>   Calculating wake trajectory ...
 Calculating source influence matrix ...

 Solving BL system ...

 Side 1  free  transition at x/c =  0.6262   56
 Side 2  free  transition at x/c =  0.3737   40

   1   rms: 0.4461E-01   max: -.3956E+00   C at   40  2
       a = -0.500      CL =  0.6557
      Cm = -0.1671     CD =  0.00499   =>   CDf =  0.00393    CDp =  0.00106

 Side 1  free  transition at x/c =  0.6170   57
 Side 2  free  transition at x/c =  0.3788   39

   2   rms: 0.6683E-02   max: -.1186E+00   C at   39  2
       a = -0.500      CL =  0.6552
      Cm = -0.1670     CD =  0.00502   =>   CDf =  0.00398    CDp =  0.00104

 Side 1  free  transition at x/c =  0.6186   57
 Side 2  free  transition at x/c =  0.3800   40

   3   rms: 0.4354E-02   max: 0.5680E-01   D at   40  2
       a = -0.500      CL =  0.6552
      Cm = -0.1670     CD =  0.00501   =>   CDf =  0.00397    CDp =  0.00105

 Side 1  free  transition at x/c =  0.6185   57
 Side 2  free  transition at x/c =  0.3836   40

   4   rms: 0.1632E-02   max: -.3042E-01   D at   40  2
       a = -0.500      CL =  0.6552
      Cm = -0.1670     CD =  0.00501   =>   CDf =  0.00395    CDp =  0.00106

 Side 1  free  transition at x/c =  0.6185   57
 Side 2  free  transition at x/c =  0.3828   40

   5   rms: 0.4971E-04   max: -.9504E-03   D at   40  2
       a = -0.500      CL =  0.6552
      Cm = -0.1670     CD =  0.00501   =>   CDf =  0.00396    CDp =  0.00105
 plradd ia,ip,cpol           18          82  0.35295001    

 Point added to stored polar  1
 Point written to save file  aux_files\tp2a44e57a_bfd7_4d1f_a97c_d08ea460100e
 Dump file unspecified or not available

.OPERva   c>   Calculating wake trajectory ...
 Calculating source influence matrix ...

 Solving BL system ...

 Side 1  free  transition at x/c =  0.6185   57
 Side 2  free  transition at x/c =  0.3828   40

   1   rms: 0.4736E-01   max: 0.3560E+00   D at   40  2
       a = -0.250      CL =  0.6831
      Cm = -0.1672     CD =  0.00505   =>   CDf =  0.00396    CDp =  0.00110

 Side 1  free  transition at x/c =  0.6104   56
 Side 2  free  transition at x/c =  0.3911   40

   2   rms: 0.3195E-02   max: -.6093E-01   C at   40  2
       a = -0.250      CL =  0.6836
      Cm = -0.1673     CD =  0.00504   =>   CDf =  0.00396    CDp =  0.00108

 Side 1  free  transition at x/c =  0.6103   56
 Side 2  free  transition at x/c =  0.3921   40

   3   rms: 0.3535E-04   max: -.8187E-03   C at   40  2
       a = -0.250      CL =  0.6836
      Cm = -0.1673     CD =  0.00504   =>   CDf =  0.00396    CDp =  0.00108
 plradd ia,ip,cpol           19          82  0.35295001    

 Point added to stored polar  1
 Point written to save file  aux_files\tp2a44e57a_bfd7_4d1f_a97c_d08ea460100e
 Dump file unspecified or not available

.OPERva   c>   Calculating wake trajectory ...
 Calculating source influence matrix ...

 Solving BL system ...

 Side 1  free  transition at x/c =  0.6103   56
 Side 2  free  transition at x/c =  0.3921   40

   1   rms: 0.4337E-01   max: -.3389E+00   C at   40  2
       a =  0.000      CL =  0.7123
      Cm = -0.1676     CD =  0.00507   =>   CDf =  0.00396    CDp =  0.00111

 Side 1  free  transition at x/c =  0.5980   56
 Side 2  free  transition at x/c =  0.3952   41

   2   rms: 0.9736E-02   max: -.1194E+00   D at   40  2
       a =  0.000      CL =  0.7114
      Cm = -0.1674     CD =  0.00511   =>   CDf =  0.00402    CDp =  0.00109

 Side 1  free  transition at x/c =  0.6001   56
 Side 2  free  transition at x/c =  0.4055   41

   3   rms: 0.8594E-02   max: 0.1803E+00   C at   41  2
       a =  0.000      CL =  0.7114
      Cm = -0.1674     CD =  0.00510   =>   CDf =  0.00397    CDp =  0.00113

 Side 1  free  transition at x/c =  0.5998   56
 Side 2  free  transition at x/c =  0.4014   41

   4   rms: 0.2469E-03   max: 0.4331E-02   D at   41  2
       a =  0.000      CL =  0.7114
      Cm = -0.1674     CD =  0.00510   =>   CDf =  0.00399    CDp =  0.00112

 Side 1  free  transition at x/c =  0.5998   56
 Side 2  free  transition at x/c =  0.4016   41

   5   rms: 0.1204E-05   max: -.1362E-04   D at   56  1
       a =  0.000      CL =  0.7114
      Cm = -0.1674     CD =  0.00510   =>   CDf =  0.00399    CDp =  0.00112
 plradd ia,ip,cpol           20          82  0.35295001    

 Point added to stored polar  1
 Point written to save file  aux_files\tp2a44e57a_bfd7_4d1f_a97c_d08ea460100e
 Dump file unspecified or not available

.OPERva   c>   Calculating wake trajectory ...
 Calculating source influence matrix ...

 Solving BL system ...

 Side 1  free  transition at x/c =  0.5998   56
 Side 2  free  transition at x/c =  0.4016   41

   1   rms: 0.4913E-01   max: -.3472E+00   D at   56  1
       a =  0.250      CL =  0.7388
      Cm = -0.1674     CD =  0.00518   =>   CDf =  0.00396    CDp =  0.00122

 Side 1  free  transition at x/c =  0.5890   56
 Side 2  free  transition at x/c =  0.4090   40

   2   rms: 0.9371E-02   max: -.1240E+00   C at   40  2
       a =  0.250      CL =  0.7397
      Cm = -0.1676     CD =  0.00514   =>   CDf =  0.00401    CDp =  0.00114

 Side 1  free  transition at x/c =  0.5906   56
 Side 2  free  transition at x/c =  0.4106   40

   3   rms: 0.2939E-03   max: -.3791E-02   C at   40  2
       a =  0.250      CL =  0.7397
      Cm = -0.1676     CD =  0.00514   =>   CDf =  0.00400    CDp =  0.00115

 Side 1  free  transition at x/c =  0.5906   56
 Side 2  free  transition at x/c =  0.4107   40

   4   rms: 0.2977E-05   max: -.5537E-04   C at   56  1
       a =  0.250      CL =  0.7397
      Cm = -0.1676     CD =  0.00514   =>   CDf =  0.00400    CDp =  0.00115
 plradd ia,ip,cpol           21          83  0.32262000    

 Point added to stored polar  1
 Point written to save file  aux_files\tp2a44e57a_bfd7_4d1f_a97c_d08ea460100e
 Dump file unspecified or not available

.OPERva   c>   Calculating wake trajectory ...
 Calculating source influence matrix ...

 Solving BL system ...

 Side 1  free  transition at x/c =  0.5906   56
 Side 2  free  transition at x/c =  0.4107   40

   1   rms: 0.4686E-01   max: 0.4466E+00   C at   56  1
       a =  0.500      CL =  0.7673
      Cm = -0.1677     CD =  0.00523   =>   CDf =  0.00400    CDp =  0.00123

 Side 1  free  transition at x/c =  0.5795   55
 Side 2  free  transition at x/c =  0.4217   41

   2   rms: 0.2559E-02   max: -.5560E-01   C at   41  2
       a =  0.500      CL =  0.7674
      Cm = -0.1677     CD =  0.00520   =>   CDf =  0.00401    CDp =  0.00119

 Side 1  free  transition at x/c =  0.5798   55
 Side 2  free  transition at x/c =  0.4226   41

   3   rms: 0.1655E-04   max: -.3349E-03   C at   41  2
       a =  0.500      CL =  0.7674
      Cm = -0.1677     CD =  0.00520   =>   CDf =  0.00401    CDp =  0.00119
 plradd ia,ip,cpol           22          83  0.32262000    

 Point added to stored polar  1
 Point written to save file  aux_files\tp2a44e57a_bfd7_4d1f_a97c_d08ea460100e
 Dump file unspecified or not available

.OPERva   c>   Calculating wake trajectory ...
 Calculating source influence matrix ...

 Solving BL system ...

 Side 1  free  transition at x/c =  0.5798   55
 Side 2  free  transition at x/c =  0.4226   41

   1   rms: 0.4786E-01   max: -.5364E+00   C at   41  2   RLX: 0.932
       a =  0.750      CL =  0.7939
      Cm = -0.1680     CD =  0.00524   =>   CDf =  0.00401    CDp =  0.00123

 Side 1  free  transition at x/c =  0.5694   55
 Side 2  free  transition at x/c =  0.4287   42

   2   rms: 0.9400E-02   max: 0.1323E+00   D at   42  2
       a =  0.750      CL =  0.7951
      Cm = -0.1678     CD =  0.00527   =>   CDf =  0.00405    CDp =  0.00122

 Side 1  free  transition at x/c =  0.5700   55
 Side 2  free  transition at x/c =  0.4372   42

   3   rms: 0.4337E-02   max: 0.9442E-01   C at   42  2
       a =  0.750      CL =  0.7951
      Cm = -0.1678     CD =  0.00526   =>   CDf =  0.00402    CDp =  0.00125

 Side 1  free  transition at x/c =  0.5699   55
 Side 2  free  transition at x/c =  0.4351   42

   4   rms: 0.1020E-03   max: -.1925E-02   C at   42  2
       a =  0.750      CL =  0.7951
      Cm = -0.1678     CD =  0.00526   =>   CDf =  0.00402    CDp =  0.00124

 Side 1  free  transition at x/c =  0.5699   55
 Side 2  free  transition at x/c =  0.4352   42

   5   rms: 0.9636E-06   max: 0.1600E-04   D at   55  1
       a =  0.750      CL =  0.7951
      Cm = -0.1678     CD =  0.00526   =>   CDf =  0.00402    CDp =  0.00124
 plradd ia,ip,cpol           23          83  0.32262000    

 Point added to stored polar  1
 Point written to save file  aux_files\tp2a44e57a_bfd7_4d1f_a97c_d08ea460100e
 Dump file unspecified or not available

.OPERva   c>   Calculating wake trajectory ...
 Calculating source influence matrix ...

 Solving BL system ...

 Side 1  free  transition at x/c =  0.5699   55
 Side 2  free  transition at x/c =  0.4352   42

   1   rms: 0.5333E-01   max: -.6174E+00   C at   42  2   RLX: 0.810
       a =  1.000      CL =  0.8170
      Cm = -0.1678     CD =  0.00533   =>   CDf =  0.00399    CDp =  0.00135

 Side 1  free  transition at x/c =  0.5619   55
 Side 2  free  transition at x/c =  0.4426   41

   2   rms: 0.1457E-01   max: -.2548E+00   C at   41  2
       a =  1.000      CL =  0.8230
      Cm = -0.1680     CD =  0.00532   =>   CDf =  0.00403    CDp =  0.00129

 Side 1  free  transition at x/c =  0.5601   55
 Side 2  free  transition at x/c =  0.4485   42

   3   rms: 0.2020E-02   max: -.3647E-01   C at   42  2
       a =  1.000      CL =  0.8230
      Cm = -0.1680     CD =  0.00531   =>   CDf =  0.00402    CDp =  0.00128

 Side 1  free  transition at x/c =  0.5602   55
 Side 2  free  transition at x/c =  0.4494   42

   4   rms: 0.1750E-04   max: 0.3219E-03   C at   42  2
       a =  1.000      CL =  0.8230
      Cm = -0.1680     CD =  0.00531   =>   CDf =  0.00402    CDp =  0.00129
 plradd ia,ip,cpol           24          84  0.30750000    

 Point added to stored polar  1
 Point written to save file  aux_files\tp2a44e57a_bfd7_4d1f_a97c_d08ea460100e
 Dump file unspecified or not available

.OPERva   c>   Calculating wake trajectory ...
 Calculating source influence matrix ...

 Solving BL system ...

 Side 1  free  transition at x/c =  0.5602   55
 Side 2  free  transition at x/c =  0.4494   42

   1   rms: 0.5675E-01   max: -.5983E+00   C at   42  2   RLX: 0.836
       a =  1.250      CL =  0.8458
      Cm = -0.1681     CD =  0.00536   =>   CDf =  0.00402    CDp =  0.00134

 Side 1  free  transition at x/c =  0.5494   54
 Side 2  free  transition at x/c =  0.4580   42

   2   rms: 0.1386E-01   max: -.3024E+00   C at   42  2
       a =  1.250      CL =  0.8502
      Cm = -0.1680     CD =  0.00539   =>   CDf =  0.00405    CDp =  0.00134

 Side 1  free  transition at x/c =  0.5477   54
 Side 2  free  transition at x/c =  0.4633   43

   3   rms: 0.2409E-02   max: -.3592E-01   C at   43  2
       a =  1.250      CL =  0.8502
      Cm = -0.1680     CD =  0.00538   =>   CDf =  0.00404    CDp =  0.00134

 Side 1  free  transition at x/c =  0.5478   54
 Side 2  free  transition at x/c =  0.4645   43

   4   rms: 0.6061E-04   max: 0.9944E-03   C at   43  2
       a =  1.250      CL =  0.8502
      Cm = -0.1680     CD =  0.00538   =>   CDf =  0.00404    CDp =  0.00135
 plradd ia,ip,cpol           25          84  0.30750000    

 Point added to stored polar  1
 Point written to save file  aux_files\tp2a44e57a_bfd7_4d1f_a97c_d08ea460100e
 Dump file unspecified or not available

.OPERva   c>   Calculating wake trajectory ...
 Calculating source influence matrix ...

 Solving BL system ...

 Side 1  free  transition at x/c =  0.5478   54
 Side 2  free  transition at x/c =  0.4645   43

   1   rms: 0.5969E-01   max: 0.6669E+00   C at   54  1   RLX: 0.857
       a =  1.500      CL =  0.8737
      Cm = -0.1681     CD =  0.00543   =>   CDf =  0.00404    CDp =  0.00139

 Side 1  free  transition at x/c =  0.5338   53
 Side 2  free  transition at x/c =  0.4743   43

   2   rms: 0.1375E-01   max: -.3233E+00   C at   43  2
       a =  1.500      CL =  0.8768
      Cm = -0.1679     CD =  0.00549   =>   CDf =  0.00408    CDp =  0.00141

 Side 1  free  transition at x/c =  0.5329   53
 Side 2  free  transition at x/c =  0.4808   44

   3   rms: 0.6987E-03   max: -.1320E-01   C at   44  2
       a =  1.500      CL =  0.8768
      Cm = -0.1679     CD =  0.00548   =>   CDf =  0.00406    CDp =  0.00142

 Side 1  free  transition at x/c =  0.5329   53
 Side 2  free  transition at x/c =  0.4810   44

   4   rms: 0.1799E-05   max: 0.2248E-04   C at   44  2
       a =  1.500      CL =  0.8768
      Cm = -0.1679     CD =  0.00548   =>   CDf =  0.00406    CDp =  0.00142
 plradd ia,ip,cpol           26          84  0.27739000    

 Point added to stored polar  1
 Point written to save file  aux_files\tp2a44e57a_bfd7_4d1f_a97c_d08ea460100e
 Dump file unspecified or not available

.OPERva   c>   Calculating wake trajectory ...
 Calculating source influence matrix ...

 Solving BL system ...

 Side 1  free  transition at x/c =  0.5329   53
 Side 2  free  transition at x/c =  0.4810   44

   1   rms: 0.6285E-01   max: 0.7120E+00   C at   53  1   RLX: 0.709
       a =  1.750      CL =  0.8961
      Cm = -0.1680     CD =  0.00552   =>   CDf =  0.00402    CDp =  0.00150

 Side 1  free  transition at x/c =  0.5201   53
 Side 2  free  transition at x/c =  0.4902   43

   2   rms: 0.2045E-01   max: -.4221E+00   C at   43  2
       a =  1.750      CL =  0.9033
      Cm = -0.1678     CD =  0.00559   =>   CDf =  0.00410    CDp =  0.00149

 Side 1  free  transition at x/c =  0.5171   53
 Side 2  free  transition at x/c =  0.5005   44

   3   rms: 0.2961E-02   max: 0.5581E-01   C at   44  2
       a =  1.750      CL =  0.9032
      Cm = -0.1678     CD =  0.00558   =>   CDf =  0.00408    CDp =  0.00150

 Side 1  free  transition at x/c =  0.5173   53
 Side 2  free  transition at x/c =  0.4991   44

   4   rms: 0.5294E-04   max: -.1071E-02   C at   44  2
       a =  1.750      CL =  0.9032
      Cm = -0.1678     CD =  0.00558   =>   CDf =  0.00408    CDp =  0.00150
 plradd ia,ip,cpol           27          85  0.27739000    

 Point added to stored polar  1
 Point written to save file  aux_files\tp2a44e57a_bfd7_4d1f_a97c_d08ea460100e
 Dump file unspecified or not available

.OPERva   c>   Calculating wake trajectory ...
 Calculating source influence matrix ...

 Solving BL system ...

 Side 1  free  transition at x/c =  0.5173   53
 Side 2  free  transition at x/c =  0.4991   44

   1   rms: 0.6770E-01   max: -.9484E+00   C at   44  2   RLX: 0.527
       a =  2.000      CL =  0.9175
      Cm = -0.1678     CD =  0.00562   =>   CDf =  0.00408    CDp =  0.00154

 Side 1  free  transition at x/c =  0.5071   53
 Side 2  free  transition at x/c =  0.5072   44

   2   rms: 0.3188E-01   max: -.6356E+00   C at   44  2   RLX: 0.787
       a =  2.000      CL =  0.9266
      Cm = -0.1676     CD =  0.00571   =>   CDf =  0.00411    CDp =  0.00160

 Side 1  free  transition at x/c =  0.5037   52
 Side 2  free  transition at x/c =  0.5196   45

   3   rms: 0.6003E-02   max: -.8589E-01   C at   45  2
       a =  2.000      CL =  0.9297
      Cm = -0.1677     CD =  0.00568   =>   CDf =  0.00409    CDp =  0.00158

 Side 1  free  transition at x/c =  0.5028   52
 Side 2  free  transition at x/c =  0.5207   45

   4   rms: 0.1101E-03   max: -.2338E-02   C at   45  2
       a =  2.000      CL =  0.9296
      Cm = -0.1677     CD =  0.00568   =>   CDf =  0.00410    CDp =  0.00158

 Side 1  free  transition at x/c =  0.5028   52
 Side 2  free  transition at x/c =  0.5208   45

   5   rms: 0.2643E-05   max: -.4658E-04   C at   52  1
       a =  2.000      CL =  0.9296
      Cm = -0.1677     CD =  0.00568   =>   CDf =  0.00410    CDp =  0.00158
 plradd ia,ip,cpol           28          85  0.27739000    

 Point added to stored polar  1
 Point written to save file  aux_files\tp2a44e57a_bfd7_4d1f_a97c_d08ea460100e
 Dump file unspecified or not available

.OPERva   c>   Calculating wake trajectory ...
 Calculating source influence matrix ...

 Solving BL system ...

 Side 1  free  transition at x/c =  0.5028   52
 Side 2  free  transition at x/c =  0.5208   45

   1   rms: 0.6982E-01   max: -.1274E+01   C at   45  2   RLX: 0.393
       a =  2.250      CL =  0.9403
      Cm = -0.1677     CD =  0.00571   =>   CDf =  0.00410    CDp =  0.00161

 Side 1  free  transition at x/c =  0.4965   52
 Side 2  free  transition at x/c =  0.5265   46

   2   rms: 0.4017E-01   max: 0.3960E+00   D at   46  2
       a =  2.250      CL =  0.9555
      Cm = -0.1675     CD =  0.00579   =>   CDf =  0.00411    CDp =  0.00168

[...]
 Side 2  free  transition at x/c =  0.9898   67

  26   rms: 0.1932E+01   max: -.3886E+02   C at   67  2   RLX: 0.013
       a =  8.750      CL =  1.4868
      Cm = -0.1363     CD =  0.01332   =>   CDf =  0.00514    CDp =  0.00818

 Side 1  free  transition at x/c =  0.0700   31
 Side 2  free  transition at x/c =  0.9946   68

  27   rms: 0.8200E+01   max: 0.2224E+03   C at   68  2   RLX: 0.007
       a =  8.750      CL =  1.4875
      Cm = -0.1364     CD =  0.01333   =>   CDf =  0.00514    CDp =  0.00820

 Side 1  free  transition at x/c =  0.0698   31
 Side 2  free  transition at x/c =  0.9878   67

  28   rms: 0.1575E+01   max: -.3213E+02   C at   67  2   RLX: 0.016
       a =  8.750      CL =  1.4875
      Cm = -0.1364     CD =  0.01333   =>   CDf =  0.00514    CDp =  0.00819

 Side 1  free  transition at x/c =  0.0698   31
 Side 2  free  transition at x/c =  0.9933   68

  29   rms: 0.6945E+01   max: 0.1883E+03   C at   68  2   RLX: 0.008
       a =  8.750      CL =  1.4883
      Cm = -0.1366     CD =  0.01335   =>   CDf =  0.00514    CDp =  0.00821

 Side 1  free  transition at x/c =  0.0696   31
 Side 2  free  transition at x/c =  0.9859   67

  30   rms: 0.1294E+01   max: -.2677E+02   C at   67  2   RLX: 0.019
       a =  8.750      CL =  1.4883
      Cm = -0.1365     CD =  0.01334   =>   CDf =  0.00514    CDp =  0.00820

 Side 1  free  transition at x/c =  0.0696   31
 Side 2  free  transition at x/c =  0.9920   68

  31   rms: 0.6505E+01   max: 0.1764E+03   C at   68  2   RLX: 0.009
       a =  8.750      CL =  1.4892
      Cm = -0.1367     CD =  0.01336   =>   CDf =  0.00514    CDp =  0.00822

 Side 1  free  transition at x/c =  0.0693   31
 Side 2  free  transition at x/c =  0.9838   67

  32   rms: 0.1066E+01   max: -.2239E+02   C at   67  2   RLX: 0.022
       a =  8.750      CL =  1.4892
      Cm = -0.1367     CD =  0.01335   =>   CDf =  0.00514    CDp =  0.00821

 Side 1  free  transition at x/c =  0.0693   31
 Side 2  free  transition at x/c =  0.9909   67

  33   rms: 0.1851E+01   max: -.3720E+02   C at   67  2   RLX: 0.013
       a =  8.750      CL =  1.4892
      Cm = -0.1367     CD =  0.01335   =>   CDf =  0.00514    CDp =  0.00820

 Side 1  free  transition at x/c =  0.0693   31
 Side 2  free  transition at x/c =  0.9959   68

  34   rms: 0.1463E+02   max: 0.3969E+03   C at   68  2   RLX: 0.004
       a =  8.750      CL =  1.4897
      Cm = -0.1368     CD =  0.01335   =>   CDf =  0.00514    CDp =  0.00821

 Side 1  free  transition at x/c =  0.0692   31
 Side 2  free  transition at x/c =  0.9902   67

  35   rms: 0.1695E+01   max: -.3425E+02   C at   67  2   RLX: 0.015
       a =  8.750      CL =  1.4896
      Cm = -0.1368     CD =  0.01335   =>   CDf =  0.00515    CDp =  0.00821

 Side 1  free  transition at x/c =  0.0692   31
 Side 2  free  transition at x/c =  0.9955   68

  36   rms: 0.1261E+02   max: 0.3421E+03   C at   68  2   RLX: 0.004
       a =  8.750      CL =  1.4902
      Cm = -0.1369     CD =  0.01336   =>   CDf =  0.00514    CDp =  0.00822

 Side 1  free  transition at x/c =  0.0691   31
 Side 2  free  transition at x/c =  0.9896   67

  37   rms: 0.1580E+01   max: -.3207E+02   C at   67  2   RLX: 0.016
       a =  8.750      CL =  1.4901
      Cm = -0.1369     CD =  0.01336   =>   CDf =  0.00515    CDp =  0.00821

 Side 1  free  transition at x/c =  0.0690   31
 Side 2  free  transition at x/c =  0.9951   68

  38   rms: 0.1139E+02   max: 0.3090E+03   C at   68  2   RLX: 0.005
       a =  8.750      CL =  1.4907
      Cm = -0.1370     CD =  0.01337   =>   CDf =  0.00514    CDp =  0.00822

 Side 1  free  transition at x/c =  0.0689   31
 Side 2  free  transition at x/c =  0.9891   67

  39   rms: 0.1481E+01   max: -.3019E+02   C at   67  2   RLX: 0.017
       a =  8.750      CL =  1.4907
      Cm = -0.1370     CD =  0.01336   =>   CDf =  0.00515    CDp =  0.00822

 Side 1  free  transition at x/c =  0.0689   31
 Side 2  free  transition at x/c =  0.9949   68

  40   rms: 0.1060E+02   max: 0.2876E+03   C at   68  2   RLX: 0.005
       a =  8.750      CL =  1.4912
      Cm = -0.1371     CD =  0.01337   =>   CDf =  0.00514    CDp =  0.00823

 Side 1  free  transition at x/c =  0.0688   31
 Side 2  free  transition at x/c =  0.9888   67

  41   rms: 0.1416E+01   max: -.2895E+02   C at   67  2   RLX: 0.017
       a =  8.750      CL =  1.4912
      Cm = -0.1371     CD =  0.01337   =>   CDf =  0.00515    CDp =  0.00822

 Side 1  free  transition at x/c =  0.0688   31
 Side 2  free  transition at x/c =  0.9948   68

  42   rms: 0.1025E+02   max: 0.2781E+03   C at   68  2   RLX: 0.005
       a =  8.750      CL =  1.4918
      Cm = -0.1372     CD =  0.01338   =>   CDf =  0.00514    CDp =  0.00823

 Side 1  free  transition at x/c =  0.0686   31
 Side 2  free  transition at x/c =  0.9886   67

  43   rms: 0.1357E+01   max: -.2783E+02   C at   67  2   RLX: 0.018
       a =  8.750      CL =  1.4918
      Cm = -0.1372     CD =  0.01337   =>   CDf =  0.00515    CDp =  0.00823

 Side 1  free  transition at x/c =  0.0686   31
 Side 2  free  transition at x/c =  0.9948   68

  44   rms: 0.1038E+02   max: 0.2816E+03   C at   68  2   RLX: 0.005
       a =  8.750      CL =  1.4923
      Cm = -0.1373     CD =  0.01338   =>   CDf =  0.00514    CDp =  0.00824

 Side 1  free  transition at x/c =  0.0685   31
 Side 2  free  transition at x/c =  0.9886   67

  45   rms: 0.1335E+01   max: -.2740E+02   C at   67  2   RLX: 0.018
       a =  8.750      CL =  1.4923
      Cm = -0.1373     CD =  0.01338   =>   CDf =  0.00515    CDp =  0.00823

 Side 1  free  transition at x/c =  0.0685   31
 Side 2  free  transition at x/c =  0.9949   68

  46   rms: 0.1085E+02   max: 0.2943E+03   C at   68  2   RLX: 0.005
       a =  8.750      CL =  1.4929
      Cm = -0.1374     CD =  0.01339   =>   CDf =  0.00515    CDp =  0.00824

 Side 1  free  transition at x/c =  0.0684   31
 Side 2  free  transition at x/c =  0.9888   67

  47   rms: 0.1330E+01   max: -.2728E+02   C at   67  2   RLX: 0.018
       a =  8.750      CL =  1.4928
      Cm = -0.1374     CD =  0.01338   =>   CDf =  0.00515    CDp =  0.00823

 Side 1  free  transition at x/c =  0.0684   31
 Side 2  free  transition at x/c =  0.9951   68

  48   rms: 0.1202E+02   max: 0.3259E+03   C at   68  2   RLX: 0.005
       a =  8.750      CL =  1.4934
      Cm = -0.1375     CD =  0.01339   =>   CDf =  0.00515    CDp =  0.00824

 Side 1  free  transition at x/c =  0.0683   31
 Side 2  free  transition at x/c =  0.9892   67

  49   rms: 0.1342E+01   max: -.2750E+02   C at   67  2   RLX: 0.018
       a =  8.750      CL =  1.4933
      Cm = -0.1375     CD =  0.01339   =>   CDf =  0.00515    CDp =  0.00824

 Side 1  free  transition at x/c =  0.0683   31
 Side 2  free  transition at x/c =  0.9954   68

  50   rms: 0.1441E+02   max: 0.3907E+03   C at   68  2   RLX: 0.004
       a =  8.750      CL =  1.4938
      Cm = -0.1376     CD =  0.01339   =>   CDf =  0.00515    CDp =  0.00824

 Side 1  free  transition at x/c =  0.0682   31
 Side 2  free  transition at x/c =  0.9897   67

  51   rms: 0.1374E+01   max: -.2810E+02   C at   67  2   RLX: 0.018
       a =  8.750      CL =  1.4937
      Cm = -0.1375     CD =  0.01339   =>   CDf =  0.00515    CDp =  0.00824

 Side 1  free  transition at x/c =  0.0682   31
 Side 2  free  transition at x/c =  0.9958   68

  52   rms: 0.2050E+02   max: 0.5561E+03   C at   68  2   RLX: 0.003
       a =  8.750      CL =  1.4942
      Cm = -0.1376     CD =  0.01339   =>   CDf =  0.00515    CDp =  0.00825

 Side 1  free  transition at x/c =  0.0681   31
 Side 2  free  transition at x/c =  0.9905   67

  53   rms: 0.1436E+01   max: -.2925E+02   C at   67  2   RLX: 0.017
       a =  8.750      CL =  1.4941
      Cm = -0.1376     CD =  0.01339   =>   CDf =  0.00515    CDp =  0.00824

 Side 1  free  transition at x/c =  0.0681   31
 Side 2  free  transition at x/c =  0.9964   68

  54   rms: 0.4631E+02   max: 0.1256E+04   C at   68  2   RLX: 0.001
       a =  8.750      CL =  1.4945
      Cm = -0.1377     CD =  0.01340   =>   CDf =  0.00515    CDp =  0.00825

 Side 1  free  transition at x/c =  0.0680   31
 Side 2  free  transition at x/c =  0.9914   68

  55   rms: 0.5779E+01   max: 0.1567E+03   C at   68  2   RLX: 0.010
       a =  8.750      CL =  1.4955
      Cm = -0.1379     CD =  0.01342   =>   CDf =  0.00515    CDp =  0.00827

 Side 1  free  transition at x/c =  0.0679   30
 Side 2  free  transition at x/c =  0.9830   67

  56   rms: 0.7496E+00   max: -.1590E+02   C at   67  2   RLX: 0.031
       a =  8.750      CL =  1.4954
      Cm = -0.1379     CD =  0.01340   =>   CDf =  0.00515    CDp =  0.00825

 Side 1  free  transition at x/c =  0.0679   30
 Side 2  free  transition at x/c =  0.9936   68

  57   rms: 0.7355E+01   max: 0.1995E+03   C at   68  2   RLX: 0.008
       a =  8.750      CL =  1.4962
      Cm = -0.1380     CD =  0.01341   =>   CDf =  0.00515    CDp =  0.00826

 Side 1  free  transition at x/c =  0.0679   30
 Side 2  free  transition at x/c =  0.9867   67

  58   rms: 0.1014E+01   max: -.2117E+02   C at   67  2   RLX: 0.024
       a =  8.750      CL =  1.4961
      Cm = -0.1380     CD =  0.01340   =>   CDf =  0.00515    CDp =  0.00825

 Side 1  free  transition at x/c =  0.0679   30
 Side 2  free  transition at x/c =  0.9944   68

  59   rms: 0.9614E+01   max: 0.2607E+03   C at   68  2   RLX: 0.006
       a =  8.750      CL =  1.4967
      Cm = -0.1381     CD =  0.01341   =>   CDf =  0.00515    CDp =  0.00826

 Side 1  free  transition at x/c =  0.0678   30
 Side 2  free  transition at x/c =  0.9882   67

  60   rms: 0.1129E+01   max: -.2339E+02   C at   67  2   RLX: 0.021
       a =  8.750      CL =  1.4966
      Cm = -0.1381     CD =  0.01341   =>   CDf =  0.00516    CDp =  0.00825

 Side 1  free  transition at x/c =  0.0678   30
 Side 2  free  transition at x/c =  0.9953   68

  61   rms: 0.1524E+02   max: 0.4132E+03   C at   68  2   RLX: 0.004
       a =  8.750      CL =  1.4971
      Cm = -0.1382     CD =  0.01341   =>   CDf =  0.00515    CDp =  0.00826

 Side 1  free  transition at x/c =  0.0678   30
 Side 2  free  transition at x/c =  0.9897   67

  62   rms: 0.1252E+01   max: -.2572E+02   C at   67  2   RLX: 0.019
       a =  8.750      CL =  1.4970
      Cm = -0.1381     CD =  0.01341   =>   CDf =  0.00516    CDp =  0.00825

 Side 1  free  transition at x/c =  0.0678   30
 Side 2  free  transition at x/c =  0.9962   68

  63   rms: 0.4694E+02   max: 0.1273E+04   C at   68  2   RLX: 0.001
       a =  8.750      CL =  1.4974
      Cm = -0.1382     CD =  0.01341   =>   CDf =  0.00515    CDp =  0.00826

 Side 1  free  transition at x/c =  0.0678   30
 Side 2  free  transition at x/c =  0.9912   67

  64   rms: 0.1388E+01   max: -.2830E+02   C at   67  2   RLX: 0.018
       a =  8.750      CL =  1.4973
      Cm = -0.1382     CD =  0.01341   =>   CDf =  0.00516    CDp =  0.00825

 Side 1  free  transition at x/c =  0.0678   30
 Side 2  free  transition at x/c =  0.9972   68

  65   rms: 0.3271E+02   max: -.8874E+03   C at   68  2   RLX: 0.001
       a =  8.750      CL =  1.4972
      Cm = -0.1382     CD =  0.01340   =>   CDf =  0.00515    CDp =  0.00825

 Side 1  free  transition at x/c =  0.0678   30
 Side 2  free  transition at x/c =  0.9985   68

  66   rms: 0.1013E+02   max: -.2748E+03   C at   68  2   RLX: 0.002
       a =  8.750      CL =  1.4971
      Cm = -0.1381     CD =  0.01340   =>   CDf =  0.00515    CDp =  0.00825

 Side 1  free  transition at x/c =  0.0678   30
 Side 2  free  transition at x/c =  0.9995   68

  67   rms: 0.6540E+01   max: -.1774E+03   C at   68  2   RLX: 0.003
       a =  8.750      CL =  1.4971
      Cm = -0.1381     CD =  0.01340   =>   CDf =  0.00515    CDp =  0.00825

 Side 1  free  transition at x/c =  0.0678   30
 Side 2 forced transition at x/c =  1.0000   68

  68   rms: 0.1510E-01   max: 0.2496E+00   C at   68  2
       a =  8.750      CL =  1.4872
      Cm = -0.1353     CD =  0.01339   =>   CDf =  0.00515    CDp =  0.00824

 Side 1  free  transition at x/c =  0.0680   31
 Side 2 forced transition at x/c =  1.0000   68

  69   rms: 0.8108E-03   max: -.1292E-01   D at   30  1
       a =  8.750      CL =  1.4871
      Cm = -0.1352     CD =  0.01338   =>   CDf =  0.00514    CDp =  0.00824

 Side 1  free  transition at x/c =  0.0684   31
 Side 2 forced transition at x/c =  1.0000   68

  70   rms: 0.2665E-04   max: -.3215E-03   D at   31  1
       a =  8.750      CL =  1.4871
      Cm = -0.1352     CD =  0.01338   =>   CDf =  0.00514    CDp =  0.00824
 plradd ia,ip,cpol           53          93  1.56900007E-02

 Point added to stored polar  1
 Point written to save file  aux_files\tp2a44e57a_bfd7_4d1f_a97c_d08ea460100e
 Dump file unspecified or not available

.OPERva   c>   Calculating wake trajectory ...
 Calculating source influence matrix ...

 Solving BL system ...

 Side 1  free  transition at x/c =  0.0684   31
 Side 2 forced transition at x/c =  1.0000   68

   1   rms: 0.4071E-01   max: -.1537E+00   D at   31  1
       a =  9.000      CL =  1.5057
      Cm = -0.1339     CD =  0.01382   =>   CDf =  0.00514    CDp =  0.00868

 Side 1  free  transition at x/c =  0.0614   30
 Side 2 forced transition at x/c =  1.0000   68

   2   rms: 0.5763E-02   max: 0.9438E-01   D at   30  1
       a =  9.000      CL =  1.5042
      Cm = -0.1336     CD =  0.01385   =>   CDf =  0.00519    CDp =  0.00866

 Side 1  free  transition at x/c =  0.0631   30
 Side 2 forced transition at x/c =  1.0000   68

   3   rms: 0.5357E-03   max: -.8030E-02   D at   30  1
       a =  9.000      CL =  1.5043
      Cm = -0.1336     CD =  0.01385   =>   CDf =  0.00517    CDp =  0.00868

 Side 1  free  transition at x/c =  0.0630   30
 Side 2 forced transition at x/c =  1.0000   68

   4   rms: 0.4638E-05   max: 0.2397E-04   D at   89  1
       a =  9.000      CL =  1.5043
      Cm = -0.1336     CD =  0.01385   =>   CDf =  0.00517    CDp =  0.00868
 plradd ia,ip,cpol           54          93  1.56900007E-02

 Point added to stored polar  1
 Point written to save file  aux_files\tp2a44e57a_bfd7_4d1f_a97c_d08ea460100e
 Dump file unspecified or not available

.OPERva   c>   Calculating wake trajectory ...
 Calculating source influence matrix ...

 Solving BL system ...

 Side 1  free  transition at x/c =  0.0630   30
 Side 2 forced transition at x/c =  1.0000   68

   1   rms: 0.4553E-01   max: -.3529E+00   D at   30  1
       a =  9.250      CL =  1.5196
      Cm = -0.1318     CD =  0.01444   =>   CDf =  0.00517    CDp =  0.00926

 Side 1  free  transition at x/c =  0.0573   30
 Side 2 forced transition at x/c =  1.0000   68

   2   rms: 0.2572E-02   max: -.2584E-01   D at   30  1
       a =  9.250      CL =  1.5215
      Cm = -0.1321     CD =  0.01433   =>   CDf =  0.00520    CDp =  0.00913

 Side 1  free  transition at x/c =  0.0570   29
 Side 2 forced transition at x/c =  1.0000   68

   3   rms: 0.2474E-03   max: -.5238E-02   C at   29  1
       a =  9.250      CL =  1.5216
      Cm = -0.1321     CD =  0.01433   =>   CDf =  0.00520    CDp =  0.00912

 Side 1  free  transition at x/c =  0.0570   29
 Side 2 forced transition at x/c =  1.0000   68

   4   rms: 0.9120E-06   max: 0.4437E-05   C at   68  2
       a =  9.250      CL =  1.5216
      Cm = -0.1321     CD =  0.01433   =>   CDf =  0.00520    CDp =  0.00912
 plradd ia,ip,cpol           55          93  1.56900007E-02

 Point added to stored polar  1
 Point written to save file  aux_files\tp2a44e57a_bfd7_4d1f_a97c_d08ea460100e
 Dump file unspecified or not available

.OPERva   c>   Calculating wake trajectory ...
 Calculating source influence matrix ...

 Solving BL system ...

 Side 1  free  transition at x/c =  0.0570   29
 Side 2 forced transition at x/c =  1.0000   68

   1   rms: 0.3700E-01   max: 0.1483E+00   C at   29  1
       a =  9.500      CL =  1.5418
      Cm = -0.1311     CD =  0.01469   =>   CDf =  0.00507    CDp =  0.00962

 Side 1  free  transition at x/c =  0.0542   30
 Side 2 forced transition at x/c =  1.0000   67

   2   rms: 0.2549E-02   max: -.3137E-01   D at    2  1
       a =  9.500      CL =  1.5407
      Cm = -0.1309     CD =  0.01473   =>   CDf =  0.00521    CDp =  0.00952

 Side 1  free  transition at x/c =  0.0546   30
 Side 2 forced transition at x/c =  1.0000   67

   3   rms: 0.2513E-03   max: -.2900E-02   D at    4  1
       a =  9.500      CL =  1.5407
      Cm = -0.1309     CD =  0.01473   =>   CDf =  0.00521    CDp =  0.00952

 Side 1  free  transition at x/c =  0.0546   30
 Side 2 forced transition at x/c =  1.0000   67

   4   rms: 0.7173E-06   max: 0.7624E-05   C at   67  2
       a =  9.500      CL =  1.5407
      Cm = -0.1309     CD =  0.01473   =>   CDf =  0.00521    CDp =  0.00952
 plradd ia,ip,cpol           56          94  7.99999980E-05

 Point added to stored polar  1
 Point written to save file  aux_files\tp2a44e57a_bfd7_4d1f_a97c_d08ea460100e
 Dump file unspecified or not available

.OPERva   c>   Calculating wake trajectory ...
 Calculating source influence matrix ...

 Solving BL system ...

 Side 1  free  transition at x/c =  0.0546   30
 Side 2 forced transition at x/c =  1.0000   67

   1   rms: 0.3939E-01   max: 0.3212E+00   C at   30  1
       a =  9.750      CL =  1.5588
      Cm = -0.1296     CD =  0.01521   =>   CDf =  0.00521    CDp =  0.01000

 Side 1  free  transition at x/c =  0.0499   30
 Side 2 forced transition at x/c =  1.0000   67

   2   rms: 0.2782E-02   max: 0.2494E-01   D at   89  1
       a =  9.750      CL =  1.5565
      Cm = -0.1292     CD =  0.01529   =>   CDf =  0.00525    CDp =  0.01004

 Side 1  free  transition at x/c =  0.0500   30
 Side 2 forced transition at x/c =  1.0000   67

   3   rms: 0.1055E-03   max: 0.1515E-02   D at   75  2
       a =  9.750      CL =  1.5565
      Cm = -0.1292     CD =  0.01529   =>   CDf =  0.00524    CDp =  0.01005

 Side 1  free  transition at x/c =  0.0500   30
 Side 2 forced transition at x/c =  1.0000   67

   4   rms: 0.1976E-05   max: 0.1825E-04   D at   75  2
       a =  9.750      CL =  1.5565
      Cm = -0.1292     CD =  0.01529   =>   CDf =  0.00524    CDp =  0.01005
 plradd ia,ip,cpol           57          94  7.99999980E-05

 Point added to stored polar  1
 Point written to save file  aux_files\tp2a44e57a_bfd7_4d1f_a97c_d08ea460100e
 Dump file unspecified or not available

.OPERva   c>   Calculating wake trajectory ...
 Calculating source influence matrix ...

 Solving BL system ...

 Side 1  free  transition at x/c =  0.0500   30
 Side 2 forced transition at x/c =  1.0000   67

   1   rms: 0.3731E-01   max: -.1946E+00   D at   30  1
       a = 10.000      CL =  1.5727
      Cm = -0.1275     CD =  0.01585   =>   CDf =  0.00524    CDp =  0.01061

 Side 1  free  transition at x/c =  0.0468   29
 Side 2 forced transition at x/c =  1.0000   67

   2   rms: 0.1931E-02   max: -.9716E-02   D at   89  1
       a = 10.000      CL =  1.5742
      Cm = -0.1278     CD =  0.01575   =>   CDf =  0.00524    CDp =  0.01050

 Side 1  free  transition at x/c =  0.0467   29
 Side 2 forced transition at x/c =  1.0000   67

   3   rms: 0.2526E-04   max: -.2338E-03   D at   89  1
       a = 10.000      CL =  1.5742
      Cm = -0.1278     CD =  0.01575   =>   CDf =  0.00525    CDp =  0.01050
 plradd ia,ip,cpol           58          94  7.99999980E-05

 Point added to stored polar  1
 Point written to save file  aux_files\tp2a44e57a_bfd7_4d1f_a97c_d08ea460100e
 Dump file unspecified or not available

.OPERva   c>  
 Polar accumulation disabled

.OPERv   c>  
 XFOIL   c>  